165
Properties=species:S:1:pos:R:3:forces:R:3 energy=-173317.1786569638 pbc="F F F"
H       17.30250474      -3.12883110       8.20199010      -0.02272855       0.03604687       0.02817929
O       16.50639543      -3.70122100       8.10599597       0.02766507      -0.01650648      -0.00699340
P       15.08025419      -2.82898548       8.25690543       0.03239590       0.03645825      -0.05090785
O       15.13978776      -1.86589303       9.44986572      -0.04586848      -0.02087736      -0.01604368
O       13.96253659      -3.87251027       8.15059455       0.06201501       0.02293424      -0.01059295
O       15.08929582      -1.83546685       6.89767992      -0.00159408       0.00905028      -0.04031490
C       15.81605735      -2.18922898       5.68423499       0.01013015       0.00241684      -0.03244732
C       15.25965053      -1.44221424       4.46131315      -0.05363322      -0.01892332      -0.00889602
O       14.00422517      -2.06245466       4.00284569      -0.00817611       0.02478544       0.01640364
C       14.92820346       0.05478772       4.68061937      -0.00935882      -0.00920455       0.00452514
O       15.18567556       0.74001663       3.40651904       0.00313675       0.01270125       0.01820341
C       13.43489760       0.01533658       5.05168714      -0.02745938      -0.01038726      -0.00462799
C       12.89283117      -1.14419478       4.18710006       0.01928328      -0.02591672      -0.00797042
N       11.76187767      -1.87222124       4.78217070      -0.00524505       0.01069579      -0.00740478
C       11.69493000      -2.43346286       6.05873638       0.00678771       0.02339704      -0.00843322
N       10.50285102      -2.95486551       6.34251538       0.01367827       0.01912901      -0.00709625
C        9.74283235      -2.72662703       5.19282165       0.00128555       0.00858749       0.00282821
C        8.36703817      -2.94359323       4.90634983       0.03229306       0.01136428      -0.01254698
N        7.49651546      -3.49886966       5.78450864      -0.00231399      -0.00853606      -0.00555358
N        7.91226852      -2.55365569       3.67341989       0.02067167      -0.00272537       0.00596496
C        8.77201953      -1.97607920       2.79649596       0.00802184      -0.00987304       0.00215973
N       10.08054768      -1.69717675       2.97143754      -0.01491240      -0.00071991       0.00560501
C       10.50912865      -2.07670977       4.20176977      -0.00869033       0.01023299      -0.00354812
H       16.87718336      -1.90988534       5.81575343       0.01470671      -0.00642776       0.01007873
H       15.75458110      -3.27276889       5.48864233      -0.01054152       0.00426803       0.00200546
H       15.99316323      -1.56054586       3.64420123      -0.03512127       0.01249556       0.03152173
H       12.53948980      -0.79442108       3.20442895       0.01357543       0.00339386       0.02401411
H       13.34742749      -0.22335459       6.12065429      -0.01599226       0.00493652       0.00889602
H       12.91667294       0.95834681       4.85060728      -0.00123413       0.01583800      -0.00272537
H       15.54633796       0.51077336       5.46832047      -0.00267395       0.01794630      -0.01146712
H       12.56102788      -2.46391873       6.71433576       0.02262571       0.02946484       0.00632491
H        7.79451488      -3.66961524       6.74423904      -0.00961593       0.00365097      -0.00329101
H        6.49007884      -3.55018940       5.55594707       0.01162139       0.01018157      -0.00046280
H        8.32565929      -1.68108296       1.84196712       0.03044186      -0.01326689       0.00570785
P       14.86598954       2.38727820       3.23593000      -0.06150079      -0.02334562      -0.01948896
O       15.61605661       2.81795630       1.97342182       0.04216610      -0.03805233       0.04823390
O       15.03712541       3.10946444       4.57653189       0.02833356      -0.07569328      -0.01789488
O       13.21416713       2.41589652       2.95428958      -0.02956769      -0.00663345       0.00442230
C       12.65623522       2.19672661       1.62709171       0.00591354       0.00858749      -0.01835768
C       11.89860935       3.44684995       1.15278642      -0.02396268       0.03157315       0.04124050
O       10.75926385       3.72466971       2.03501862       0.02745938       0.01434676       0.00956450
C       12.73356250       4.75497270       1.13943968      -0.00601638       0.00956450      -0.01424391
O       12.36342991       5.63791328       0.04340135       0.00298248      -0.01110717       0.00251968
C       12.45789615       5.36943178       2.53367228      -0.01357543       0.00087418      -0.00174835
C       11.02153394       4.90141409       2.85689507      -0.01054152      -0.03327008      -0.01378111
N       10.71337306       4.57737539       4.27725930      -0.00298248       0.00601638       0.01290694
C        9.34647215       4.62495073       4.63469766       0.00833037      -0.00025711       0.00601638
O        8.45031512       5.00371200       3.85134167       0.01532378      -0.00380523       0.00179977
N        9.06113216       4.21924629       5.92757192       0.01110717       0.00894744      -0.00154266
C        9.96080003       3.72127434       6.87761587       0.00395950       0.00575927      -0.01666075
O        9.53319228       3.33588040       7.99970126       0.01516951       0.01645506      -0.01640364
C       11.35302858       3.66920142       6.44908099       0.00143982      -0.01311263      -0.00596496
C       12.39564998       3.10351319       7.38713669       0.00077133       0.00082275      -0.01054152
C       11.65210613       4.07402284       5.17279065       0.01054152      -0.00344528      -0.00503936
H       13.44967735       1.96016493       0.90075590       0.03450421      -0.02637952      -0.02062025
H       11.95905756       1.34509986       1.69501888       0.01804915      -0.00190262       0.03337292
H       11.48821951       3.24405605       0.14656538       0.02406553      -0.01172423       0.05497019
H       10.28591721       5.66563421       2.57483426       0.02308851      -0.00735336       0.00349670
H       13.20131898       4.98923151       3.24403533      -0.00437088       0.00149124      -0.00282821
H       12.52507132       6.46694450       2.51224254      -0.00411377       0.00586212       0.00622207
H       13.80087003       4.54964995       0.98390228       0.00066849       0.00267395       0.00822753
H       12.66793650       3.98792229       4.79610965       0.00822753       0.00035995      -0.01141570
H       12.47705324       3.71156619       8.30599145      -0.00005142      -0.00221115      -0.01655791
H       13.37968079       3.06403839       6.89610349       0.00663345      -0.00411377       0.00853606
H       12.12023944       2.08113311       7.70090039       0.01321547       0.00827895       0.00015427
H        8.02941537       4.08257618       6.12718274       0.03157315       0.01002730      -0.00827895
H       11.40302914       5.84274101       0.10693745       0.00781615      -0.01306121       0.00581069
H       -2.13057149       6.01464455       9.81763986      -0.01923185      -0.05898111      -0.00951308
O       -1.76952661       5.12862106      10.05438706      -0.01784346       0.01938612      -0.01547804
P       -1.69304637       4.13628989       8.69654874       0.05712992       0.06155221      -0.05877542
O       -3.03474927       4.11583967       7.95529508      -0.00797042      -0.03018475       0.06062662
O       -1.02002997       2.84956119       9.18518881      -0.05178202       0.05671854       0.02308851
O       -0.55163213       4.93953595       7.76421831       0.06114084       0.03054471      -0.02195722
C       -0.90505050       5.72615435       6.59065879      -0.01897474      -0.02895062      -0.04216610
C       -0.43364285       5.05518616       5.28475847       0.04478862      -0.01378111      -0.01383254
O        1.01670149       4.82136306       5.32982052      -0.01095290      -0.00632491       0.01588942
C       -1.04263284       3.67014190       4.95866155       0.02643094      -0.01933470       0.03805233
O       -1.01942911       3.54633852       3.48724835      -0.01249556      -0.03944073       0.05754129
C       -0.08128531       2.71421182       5.67956346       0.05003367      -0.02956769       0.00401092
C        1.27858848       3.38836051       5.44778930       0.01712355       0.03722958      -0.00339386
N        2.30770881       3.16181715       6.47181342       0.01033584      -0.00200546      -0.02056883
C        2.22372985       2.75236753       7.80421958      -0.00575927      -0.00642776      -0.02236860
N        3.41328927       2.65856926       8.39972147      -0.01974607       0.00138840      -0.02015745
C        4.33162349       3.03963417       7.41549436      -0.01259841       0.00077133      -0.00683913
C        5.75286735       3.16624865       7.40542562      -0.02956769       0.00514221      -0.01707213
N        6.56023887       2.86301445       8.45079841      -0.01043868       0.00606780      -0.00334243
N        6.32656861       3.63697474       6.25512884      -0.01213561      -0.01511809      -0.00123413
C        5.55852390       3.91460566       5.17334638      -0.00431945       0.00437088       0.01223845
N        4.22004110       3.80146257       5.05871021       0.01136428       0.01167281       0.01635222
C        3.66232569       3.36642187       6.21631988       0.00503936      -0.00246826      -0.00848464
H       -1.99347322       5.89127845       6.54339780      -0.02535108       0.02283140      -0.00786758
H       -0.39365730       6.70021578       6.68860760      -0.01388396      -0.08160682       0.02807645
H       -0.62877642       5.76112976       4.45899990       0.00617065      -0.00010284       0.00586212
H        1.73197371       3.05158839       4.50836832      -0.01198134      -0.00966735       0.01300978
H       -0.34090251       2.67242591       6.74422669      -0.00807326       0.00853606      -0.01002730
H       -0.12092080       1.70110417       5.28044516       0.00971877      -0.03882366      -0.01856337
H       -2.08253498       3.57004643       5.30503873      -0.00473083      -0.01768919      -0.03609829
H        1.26765150       2.54765810       8.28131152      -0.03193310      -0.00000000      -0.00992446
H        6.17017997       2.44103357       9.29162801       0.00421661      -0.00164551      -0.00205688
H        7.58389912       2.93817225       8.35026360      -0.01403822      -0.00015427       0.00164551
H        6.10964006       4.26517545       4.29659131      -0.02457975      -0.00442230       0.01398680
P       -0.88160950       2.11864275       2.60239521       0.08885733       0.06654015       0.01825483
O       -1.34809332       2.51182053       1.19593467      -0.04566280      -0.01095290       0.05558725
O       -1.45894202       0.91029253       3.34581968      -0.01650648       0.12372149      -0.02601957
O        0.78113482       1.84550907       2.58604697       0.02673947       0.01064437      -0.02329420
C        1.66561879       2.68762612       1.78516548      -0.00498794      -0.00761047      -0.03244732
C        2.38856416       1.86884499       0.70818056       0.01491240      -0.06381479       0.01342116
O        3.28120803       0.88841149       1.36050893      -0.03434994      -0.01414107      -0.02334562
C        1.46399383       1.04525932      -0.22274992      -0.00010284      -0.00488510      -0.01856337
O        2.03727638       1.10165783      -1.56170024      -0.00025711       0.00236542       0.00941024
C        1.53017201      -0.37584446       0.38103773       0.00138840      -0.00107986      -0.00411377
C        3.00167976      -0.44527988       0.80714993       0.00303390       0.02843640       0.01295836
N        3.39116809      -1.44524448       1.82106859       0.00807326       0.00570785      -0.00827895
C        4.78336981      -1.61351776       2.02439760      -0.05178202      -0.03116177       0.04741115
O        5.64191958      -1.06849846       1.30592321       0.02206007       0.01743208      -0.02874494
N        5.12223409      -2.40697846       3.10841213      -0.00051422       0.00118271      -0.01038726
C        4.24312538      -3.04995792       3.98986906      -0.01738066       0.02622525      -0.04093197
O        4.69511630      -3.67521950       4.98573039      -0.00272537      -0.01588942      -0.00128555
C        2.82692307      -2.92534489       3.67075629      -0.00005142       0.00879317      -0.00000000
C        1.82134171      -3.63286141       4.54843221       0.00257110       0.00812469      -0.01192992
C        2.47307059      -2.11302937       2.62600500      -0.00514221      -0.00601638       0.00282821
H        1.10308657       3.49674807       1.29317788      -0.02103163       0.03080182       0.00668487
H        2.41423202       3.13235598       2.46415870      -0.04509715      -0.02180296       0.00539932
H        3.01665687       2.55386784       0.10821030      -0.04010921      -0.02499112       0.04720546
H        3.65829079      -0.60511057      -0.06031429      -0.00930739       0.00894744       0.00884460
H        0.85468677      -0.40184793       1.24784580      -0.00041138      -0.00884460       0.00735336
H        1.24806863      -1.16091512      -0.33584974       0.01835768      -0.00771331      -0.00426803
H        0.43866922       1.44559437      -0.23003678      -0.00678771      -0.01480956      -0.00020569
H        1.42651797      -1.94278852       2.38317860      -0.01285552       0.00812469      -0.01038726
H        0.79174763      -3.41427258       4.22616925      -0.00282821      -0.00889602       0.01023299
H        1.93479930      -3.30870352       5.59680228      -0.00627349      -0.01079863      -0.01444960
H        1.97800564      -4.72631405       4.52312182      -0.00560501       0.01717497      -0.00601638
H        6.16172273      -2.48516364       3.30607487      -0.03558407       0.00545074      -0.00786758
H        1.46125027       0.56812141      -2.15409040      -0.00493652       0.01501524       0.01218703
C        8.85076802       0.34499578       6.35348866      -0.00689056       0.00092560       0.00447372
C        9.96288449       0.78801865       5.64831269      -0.00817611      -0.00215973       0.00730193
C        9.84836169       1.30728783       4.33211317      -0.00534789      -0.00133697       0.00709625
C        8.59975277       1.39524937       3.74035651      -0.00329101      -0.00035995       0.00755904
C        7.42527132       0.94787047       4.42440727      -0.00102844      -0.00010284       0.00581069
C        6.14665908       1.04628715       3.81466246      -0.00339386      -0.00586212       0.00925597
C        5.04726063       0.61723385       4.53750445       0.00534789       0.00092560       0.00318817
N        3.70725211       0.60438825       4.19647713       0.00066849      -0.00133697       0.00987304
C        2.97168604       0.05593732       5.23762694       0.00735336      -0.00380523      -0.00092560
C        1.58809417      -0.18472480       5.28786958       0.00617065      -0.00503936      -0.00061706
C        1.06398352      -0.70894520       6.47462574       0.01177565       0.00231399      -0.00442230
C        1.89952927      -0.99522919       7.58927805       0.00586212      -0.00478225       0.00005142
C        3.28255152      -0.79209678       7.52827664       0.00493652      -0.00282821       0.00046280
C        3.85240979      -0.27504061       6.33189018       0.00817611      -0.00401092       0.00226257
C        5.18022867       0.06598885       5.86741775      -0.00555358      -0.00257110       0.00102844
N        6.41847367      -0.07198717       6.42976410       0.00601638      -0.00082275       0.00035995
C        7.56068240       0.39424934       5.75877907      -0.00020569       0.00097702       0.00550216
C        6.50479153      -0.76592478       7.74402798      -0.00287964       0.00735336      -0.00611923
H        8.99515326      -0.02457514       7.36593065      -0.00755904      -0.00123413       0.00257110
H       10.93830848       0.74061866       6.13246272      -0.00946166      -0.00092560       0.00575927
H       10.73415153       1.65907741       3.80309928      -0.00905028      -0.00365097       0.00575927
H        8.48872256       1.81452339       2.73687602      -0.00843322      -0.00303390       0.00349670
H        6.04040422       1.45245914       2.80672542       0.00179977      -0.00570785       0.00035995
H        3.34815499       0.85447442       3.26313368       0.00195404       0.00190262       0.01074721
H        0.96098043       0.03549329       4.42398014       0.00977019       0.00185119      -0.00524505
H       -0.01120753      -0.89803044       6.54554051       0.01002730       0.00272537      -0.00185119
H        1.45417085      -1.38421895       8.50873796       0.00447372      -0.00210830       0.00200546
H        3.89643709      -1.01685796       8.39963272       0.00200546      -0.00246826      -0.00046280
H        5.91116285      -1.68700673       7.68139382       0.00339386       0.00205688       0.00982161
H        7.53659922      -1.04619657       7.96129655      -0.00699340       0.00200546       0.00930739
H        6.12006744      -0.10261514       8.53245824      -0.00226257      -0.00231399       0.00236542
