163
Properties=species:S:1:pos:R:3:forces:R:3 energy=-174191.79553627252 pbc="F F F"
P       -7.90828131      25.81505654       5.66243291      -0.02689374       0.01110717       0.01599226
O       -8.58396308      24.97310446       6.74971082       0.00570785       0.00185119       0.04196041
O       -8.66703992      26.34959335       4.44667107      -0.03532696       0.00951308       0.00874175
O       -7.19765304      27.18769809       6.31613157       0.00365097       0.01861479       0.00596496
C       -6.20582199      27.08160661       7.37694639       0.01650648       0.01578657       0.01223845
C       -5.20183695      28.24350980       7.28728555       0.01383254       0.00457656      -0.01033584
O       -4.38417830      28.10240371       6.07464771      -0.01465529       0.01054152       0.00015427
C       -5.79880670      29.67368416       7.22502791       0.00030853      -0.01311263      -0.01074721
O       -4.84882301      30.55484205       7.91584981       0.01049010      -0.01290694       0.00786758
C       -5.85971171      29.96322830       5.71775564       0.01563231      -0.00437088      -0.01676359
C       -4.60694094      29.23663654       5.18747340       0.01007873      -0.00771331       0.00817611
N       -0.20313530      31.98328685      -3.31472490      -0.00159408       0.01023299      -0.00329101
C       -0.77454361      31.38067212      -4.44182284       0.00082275       0.00298248      -0.00586212
N       -1.69123355      30.47125906      -4.13630087       0.00236542      -0.00041138      -0.00498794
C       -1.73732443      30.47524218      -2.73704158       0.00113129      -0.00195404      -0.00689056
C       -2.57575687      29.75706979      -1.82529101       0.00817611      -0.00164551      -0.00622207
O       -3.50623647      28.94863668      -2.10854474       0.00781615      -0.00761047      -0.00899886
N       -2.27755028      30.05779158      -0.47363105       0.00370239      -0.00699340      -0.00349670
C       -1.28435747      30.93613729      -0.05293796       0.00411377       0.00185119      -0.01115859
N       -1.06327249      31.03229579       1.28208601      -0.00107986      -0.00061706      -0.00287964
N       -0.53856260      31.66386693      -0.90701106      -0.00169693       0.00359954       0.00025711
C       -0.81231755      31.39909655      -2.20689909      -0.00282821       0.00179977      -0.00411377
P       -5.11369025      32.21934082       7.95951463      -0.01717497       0.00087418       0.02488828
O       -4.36435660      32.71669280       9.19669726       0.00437088      -0.00246826       0.02062025
O       -6.60054868      32.50388776       7.72876774      -0.02103163      -0.00395950       0.01573515
O       -4.34998351      32.75413369       6.56243329      -0.02632810       0.00858749       0.00539932
C       -3.01274811      33.32930487       6.55494194      -0.00503936       0.00735336       0.00884460
C       -3.05047761      34.84167181       6.27671029      -0.00863891       0.01162139      -0.00159408
O       -3.60589833      35.09223887       4.94242095      -0.01090148      -0.01018157       0.00941024
C       -3.90643306      35.68062268       7.25289052      -0.00257110       0.00622207       0.00905028
O       -3.25511533      36.98183006       7.38416627       0.00298248      -0.01434676       0.00714767
C       -5.26527943      35.78390643       6.52933750       0.00560501       0.00596496       0.00899886
C       -4.84168707      35.85794404       5.05134232       0.02607099      -0.00802184       0.00365097
N       -5.81213884      35.33491468       4.08529328       0.00185119       0.00251968       0.00205688
C       -6.87411883      34.43637952       4.26159944      -0.00077133       0.00030853      -0.00406234
N       -7.48378188      34.12413156       3.12496371      -0.00066849       0.00318817       0.00092560
C       -6.78347672      34.82857255       2.13924744       0.00061706       0.00190262       0.00704482
C       -6.88931812      34.80286510       0.71086919      -0.00899886       0.00025711       0.00118271
O       -7.70915993      34.14540403       0.00587675      -0.00303390       0.01234130       0.00997588
N       -5.90991225      35.61390428       0.08901376      -0.00365097       0.00030853       0.00519363
C       -4.93421928      36.34471671       0.75763397      -0.00195404      -0.00365097       0.00689056
N       -4.05737284      37.04920447      -0.00005685       0.00251968      -0.00977019       0.00221115
N       -4.81385236      36.35361462       2.09841415       0.00303390      -0.00030853       0.00272537
C       -5.73966963      35.58075105       2.71636882      -0.00133697      -0.00339386       0.00467941
H       -0.48917848      31.67915860      -5.44696388       0.00344528       0.00483367      -0.01033584
H       -2.85476152      29.55959883       0.25061250       0.00776473      -0.00617065      -0.00673629
H       -1.69267144      30.58160873       1.97110331       0.00164551      -0.00205688      -0.01049010
H       -0.46983589      31.79601113       1.60537644      -0.01208419       0.01013015      -0.00946166
H       -3.72698741      29.88968053       5.20854283      -0.00195404      -0.00519363      -0.00714767
H       -5.83268816      31.03476027       5.48959672       0.00257110      -0.00123413      -0.00303390
H       -6.78556772      29.53757235       5.30647976       0.00365097       0.00833037       0.00123413
H       -6.78142083      29.74491064       7.71506979       0.00334243       0.00133697       0.00051422
H       -4.52817082      28.16098130       8.15769673       0.00082275      -0.00215973      -0.00478225
H       -6.71269769      27.10463020       8.35830202      -0.00061706       0.00992446       0.00457656
H       -7.14668958      34.05334834       5.24062411      -0.00102844      -0.00190262       0.01254698
H       -5.90298283      35.61793208      -0.96351777      -0.00395950       0.00359954      -0.00102844
H       -4.14057035      37.11951228      -1.03191026      -0.00719909      -0.00005142       0.00205688
H       -3.34825731      37.60178282       0.47980285      -0.00431945       0.00159408       0.00874175
H       -4.62899046      36.89324746       4.74110304      -0.00133697      -0.00658202      -0.00380523
H       -5.85039648      36.66213472       6.84142531       0.00879317       0.01198134       0.00035995
H       -5.84426864      34.87459426       6.74015801      -0.00889602       0.01038726       0.00308532
H       -3.99046716      35.20228861       8.24151483      -0.00359954      -0.00169693       0.00205688
H       -3.81688639      37.53537416       7.97169649       0.00971877      -0.00817611       0.00071991
H       -2.00804622      35.20922933       6.27973041      -0.00015427      -0.01748350       0.00817611
H       -2.45466837      32.83317058       5.74381616      -0.02190580      -0.02293424       0.00313675
H       -2.49661869      33.14854213       7.51182452      -0.00776473      -0.00719909       0.02221433
O       -5.78057239      36.26132446      -8.76886047       0.01830626      -0.01141570       0.01871763
C       -5.05077625      37.48223260      -9.07627392       0.02216291       0.01342116       0.00894744
C       -4.17125682      37.90060570      -7.89848310       0.00056564       0.00431945       0.02329420
O       -5.01712623      38.24519617      -6.74357431       0.00776473      -0.01167281      -0.00077133
C       -3.14730439      36.87872032      -7.34783526      -0.00128555      -0.00154266       0.00776473
O       -1.92296758      36.97778182      -8.11884120      -0.00169693      -0.00210830       0.00709625
C       -2.97296852      37.35201872      -5.88813990      -0.00725051      -0.00267395       0.01002730
C       -4.38467484      37.83636297      -5.51749088      -0.00138840       0.00714767      -0.00838180
N       -5.20809421      36.75698102      -4.86103901       0.00190262       0.00128555      -0.00401092
C       -5.09550171      36.59415415      -3.45729752      -0.00246826       0.00519363       0.00699340
O       -4.24239029      37.29663401      -2.83381816      -0.01280409       0.00478225       0.00318817
N       -5.90641897      35.69421347      -2.82970836      -0.00452514       0.00262253       0.01239272
C       -6.76971165      34.92529641      -3.54618840      -0.00020569       0.00221115       0.00293106
N       -7.56777471      34.07564192      -2.86361860       0.00015427      -0.00164551       0.00143982
C       -6.81970034      34.99785921      -4.97965682       0.00205688      -0.00071991       0.00174835
C       -6.02717389      35.93114759      -5.59246602       0.00694198       0.00287964       0.00483367
P       -0.86167431      35.68500604      -8.20609633      -0.00699340       0.00771331      -0.02303709
O        0.31321556      36.18720983      -9.04927196       0.00704482       0.00807326      -0.00627349
O       -1.60647698      34.39803450      -8.57356475       0.00601638      -0.00822753      -0.00318817
O       -0.40964485      35.62660236      -6.57909011      -0.01177565       0.01316405       0.00822753
C        0.76770264      34.83018431      -6.25968470       0.00709625      -0.00041138       0.00437088
C        1.07656112      34.96865225      -4.76305354       0.00385666      -0.00200546       0.01588942
O        0.08193189      34.25669278      -3.94228473      -0.00107986      -0.00745620      -0.00056564
C        2.44137328      34.34430829      -4.38221245       0.00848464       0.00437088       0.00051422
O        2.93444503      35.08201590      -3.22682747       0.00056564      -0.00046280      -0.01912901
C        2.05224230      32.89979401      -4.01558686       0.00941024       0.01383254      -0.00509078
C        0.71747128      33.11525568      -3.28202916      -0.00668487       0.02905347      -0.00807326
N       -4.72212296      28.74684084       3.79909974      -0.00421661       0.00359954       0.00128555
C       -3.71163596      29.05471435       2.83942151       0.01090148      -0.00241684      -0.00241684
O       -2.66612541      29.65758388       3.21235020      -0.00046280      -0.01290694      -0.00961593
N       -3.92319870      28.70361052       1.53608240       0.01300978      -0.00041138      -0.00478225
C       -5.04074778      28.02466551       1.16903965       0.00061706      -0.00287964      -0.00658202
N       -5.21461396      27.75493415      -0.14298025       0.00992446       0.00437088      -0.00370239
C       -6.01012510      27.59091509       2.14208792       0.00905028       0.01085006       0.01460387
C       -5.81406026      27.98636033       3.43460543       0.00617065       0.00025711      -0.02154585
H       -6.01119337      36.07530921      -6.67029293       0.00164551      -0.00452514       0.00318817
H       -7.46577063      34.34238635      -5.56279406       0.00046280      -0.00977019      -0.00020569
H       -7.57798508      34.06765970      -1.82731810      -0.00349670       0.00262253       0.00426803
H       -8.22834998      33.48429825      -3.36612951       0.00066849      -0.00298248       0.00354812
H       -4.38878864      38.67886426      -4.81510644       0.00257110      -0.00447372      -0.00308532
H       -2.27413566      38.20494073      -5.87322194      -0.00179977      -0.01131285       0.00483367
H       -2.60494897      36.57764587      -5.20650565       0.00195404      -0.00138840       0.00586212
H       -3.54305353      35.85302896      -7.40344518       0.00411377      -0.00236542       0.00401092
H       -3.62177725      38.81016445      -8.21094059      -0.00293106      -0.01429533      -0.00359954
H       -5.75776284      38.29504989      -9.30616216       0.00889602       0.00668487      -0.01717497
H       -4.40256023      37.31408436      -9.95519771       0.01686644      -0.01105574      -0.00262253
H       -6.50024885      27.72402668       4.23465513      -0.00658202      -0.00082275      -0.00200546
H       -6.87900094      26.99400823       1.86322723      -0.00910171      -0.00221115      -0.01110717
H       -4.58208075      28.16813445      -0.85224627       0.00370239      -0.00313675      -0.00169693
H       -6.07806827      27.31559259      -0.45913456      -0.00617065       0.00200546      -0.00910171
H        0.87112071      33.35508438      -2.21950853      -0.00730193       0.00190262      -0.00344528
H        2.79994184      32.39674986      -3.38361771      -0.00195404       0.00791900       0.00421661
H        1.90362310      32.30405347      -4.93162579       0.00272537      -0.00107986       0.00221115
H        3.17430676      34.39527522      -5.20490443      -0.00015427      -0.00195404      -0.00159408
H        1.03634984      36.03138838      -4.47391197       0.00370239       0.00529647      -0.00771331
H        1.62782345      35.20676641      -6.84005152       0.01480956       0.00113129      -0.01383254
H        0.59045545      33.77116778      -6.51655315      -0.00174835      -0.00879317      -0.00843322
O       -6.57137060      24.97500643       5.07964867       0.01100432      -0.00478225      -0.02046598
H       -6.41503165      24.16755788       5.61810441       0.01938612       0.01660933       0.02015745
O       -8.00918136      35.19112003      -8.12563067      -0.00272537      -0.00822753      -0.00133697
P       -7.30720109      35.97708885      -9.42830997      -0.01306121      -0.00596496      -0.01516951
O       -8.01778093      37.31032712      -9.69230125       0.01018157       0.01547804      -0.00894744
O       -7.18357728      34.91118196     -10.52130791       0.01198134      -0.00154266      -0.02463117
H        3.71748829      34.60334989      -2.87406224       0.00082275       0.01126143      -0.01588942
H       -8.36610893      35.84106526      -7.47789147       0.00097702       0.00205688      -0.00915313
H       -5.64588117      26.13545682       7.28413648      -0.00812469       0.00498794       0.01151854
C       -5.71357201      31.49212484       1.10849487      -0.00221115      -0.00179977      -0.00143982
C       -5.44873074      31.67373091       2.46039391       0.00056564      -0.00395950      -0.00349670
C       -4.38830794      32.50665548       2.90288155       0.00041138      -0.01007873      -0.00107986
C       -3.60395878      33.16523307       1.96889155       0.00473083      -0.00421661      -0.00545074
C       -3.85321053      33.02947276       0.56660070      -0.00467941      -0.00524505       0.00051422
C       -3.06870589      33.72433530      -0.39314301       0.00035995       0.00298248      -0.00323959
C       -3.36080359      33.53521035      -1.73237428      -0.00524505       0.00087418      -0.00560501
N       -2.74318669      34.05481097      -2.85871623      -0.00658202       0.00287964      -0.00390808
C       -3.33341593      33.51515451      -3.99659204      -0.00462799       0.00215973       0.00138840
C       -2.97313727      33.73071032      -5.33797183      -0.00246826       0.00133697      -0.00560501
C       -3.71775379      33.07195883      -6.32294444      -0.00179977      -0.00221115      -0.00046280
C       -4.78151285      32.19547250      -5.97800572      -0.00210830      -0.00375381      -0.00416519
C       -5.12807028      31.96584705      -4.64263848      -0.00375381      -0.00323959      -0.00287964
C       -4.41163877      32.63810176      -3.61505222      -0.00339386      -0.00005142      -0.00077133
C       -4.43264072      32.66284627      -2.16708574      -0.00154266       0.00123413      -0.00838180
N       -5.22014001      32.04791029      -1.23381073      -0.00632491      -0.00416519      -0.00097702
C       -4.93831483      32.17539112       0.13419356      -0.00133697      -0.00164551       0.00030853
C       -6.38862347      31.22808032      -1.65286728      -0.00287964      -0.00190262      -0.00231399
H       -6.51372707      30.81516387       0.81817722      -0.00370239      -0.00267395      -0.00231399
H       -6.07838194      31.16075389       3.18708495       0.00128555      -0.00467941      -0.00257110
H       -4.21288626      32.64301976       3.97038050       0.00863891      -0.01115859      -0.00478225
H       -2.79344549      33.82552025       2.28557968       0.00581069      -0.00699340      -0.00262253
H       -2.25820937      34.38209722      -0.07202668      -0.00550216      -0.00087418      -0.00365097
H       -1.83577515      34.52845399      -2.86768091      -0.00786758       0.00678771      -0.00159408
H       -2.12656241      34.36680871      -5.59417340      -0.00365097       0.00000000      -0.00179977
H       -3.45231354      33.23484789      -7.37021585      -0.00030853      -0.00298248      -0.00390808
H       -5.33854296      31.68649371      -6.76942347      -0.00071991      -0.00401092      -0.00241684
H       -5.93186425      31.26644182      -4.41693647      -0.00267395      -0.00308532      -0.00267395
H       -7.24104946      31.46504503      -1.00554661      -0.00442230       0.00015427      -0.00401092
H       -6.66758197      31.49826798      -2.67056626      -0.00236542      -0.00529647      -0.00118271
H       -6.13092548      30.16097612      -1.58547612      -0.00375381      -0.00164551       0.00200546
