163
Properties=species:S:1:pos:R:3:forces:R:3 energy=-174191.36277499894 pbc="F F F"
O        8.93947111      10.51575816      19.76128509      -0.00725051       0.00190262      -0.00565643
P        7.88979013      11.72776098      20.22465786      -0.00807326      -0.00735336       0.01846052
O        6.55100473      11.04997335      20.54415093       0.00673629      -0.02555677       0.04196041
O        7.91546233      12.90681513      19.24030052      -0.04643413      -0.02375699       0.00025711
O        8.59981299      12.32618167      21.63135071       0.01408965       0.01902616      -0.00195404
C        9.47588647      11.53061669      22.47856506       0.01249556       0.00946166      -0.00606780
C       10.95053065      11.86125648      22.20314645       0.01213561      -0.00005142      -0.00174835
O       11.34570969      11.35835658      20.86402742       0.00077133       0.00241684      -0.00848464
C       11.27343599      13.38497269      22.19998556       0.00221115       0.00730193       0.00467941
O       12.53591601      13.54359120      22.92528977       0.00524505      -0.00102844       0.00596496
C       11.39603382      13.72034331      20.70330397       0.00797042       0.00689056       0.00174835
C       12.04951939      12.44674686      20.15936018       0.00647918       0.00334243      -0.00056564
N       11.96836390      12.23099091      18.72642861       0.00529647       0.00107986      -0.00267395
C       10.89748825      12.48512470      17.85145320      -0.00498794       0.00293106       0.00673629
N       11.21054453      12.26569080      16.58190695       0.00051422      -0.00277679      -0.00431945
C       12.55005416      11.85888945      16.60612467      -0.00020569      -0.00236542      -0.00010284
C       13.46826995      11.61307495      15.53513195      -0.00025711      -0.00370239      -0.00637634
O       13.23454784      11.64259849      14.29233002      -0.00066849       0.00251968       0.00457656
N       14.77533551      11.34806640      16.01034653      -0.00498794      -0.00843322       0.00282821
C       15.14839991      11.31415832      17.34831342       0.00498794      -0.00935882       0.00349670
N       16.44977017      11.02020479      17.62381718      -0.00966735      -0.02509397      -0.00478225
N       14.28773069      11.53295630      18.35625568      -0.00483367      -0.00519363       0.00406234
C       13.03799814      11.82795398      17.92696823       0.00051422      -0.00164551       0.00159408
H        9.24925284      11.80044104      23.52359865      -0.00550216       0.01460387      -0.01583800
H        9.29123509      10.45164175      22.34482158       0.00380523       0.01085006       0.00282821
H       11.57319365      11.34691472      22.95455819       0.00370239      -0.00426803       0.00807326
H       13.11740032      12.40157008      20.42064016       0.00843322       0.00185119       0.00416519
H       10.39168518      13.84889499      20.27287874       0.00421661       0.00365097       0.00673629
H       11.99322415      14.61895214      20.51764256       0.01342116       0.00570785       0.00066849
H       10.49443134      13.97520430      22.70283014      -0.00761047       0.01002730       0.00339386
H        9.92454152      12.80016478      18.22762608       0.00663345       0.00154266       0.00416519
H       15.51176094      11.18934406      15.27933314      -0.00041138      -0.00462799      -0.00010284
H       16.75909455      11.18831738      18.58144820      -0.00185119       0.01234130      -0.00241684
H       17.17049160      11.05876832      16.87851729      -0.00586212      -0.00689056      -0.00210830
P       13.25649118      15.05525385      23.11736397       0.01192992      -0.00282821       0.01033584
O       14.03319632      14.96101884      24.43404883       0.00030853      -0.01228987       0.01815199
O       12.25013609      16.17436964      22.84144427       0.00766189      -0.00509078       0.02679090
O       14.33947320      15.10592647      21.83670817       0.00164551       0.00977019       0.00179977
C       15.54136486      14.27519138      21.86065640      -0.00318817       0.00102844       0.01259841
C       16.81896798      15.12833028      21.80974043      -0.00791900       0.00262253       0.00251968
O       16.94789011      15.80873505      20.51763772      -0.00632491      -0.00185119       0.00154266
C       16.92453303      16.25100114      22.87642654      -0.00200546      -0.00005142       0.00046280
O       18.28990880      16.44279650      23.34300429      -0.00359954      -0.00575927       0.00200546
C       16.35520531      17.48528884      22.13925622       0.00035995      -0.00133697       0.00056564
C       16.76096582      17.24479606      20.66962316      -0.00545074      -0.00123413       0.00005142
N       15.79583234      17.71666973      19.66305899      -0.00509078      -0.00000000       0.00257110
C       14.44172508      18.05681424      19.78845576      -0.00251968       0.00874175       0.00447372
N       13.86384736      18.33000555      18.62544759      -0.00174835       0.01162139       0.00262253
C       14.87088214      18.13617880      17.67278665      -0.00401092       0.00539932      -0.00246826
C       14.81367909      18.10767858      16.24061945       0.00889602       0.00899886       0.01372969
O       13.81306995      18.33043933      15.49837960      -0.00704482       0.01136428      -0.00473083
N       16.05637091      17.74900834      15.66490705       0.00339386       0.01460387      -0.00041138
C       17.21619398      17.47161418      16.37919036      -0.00041138       0.00437088       0.01105574
N       18.34880244      17.23888595      15.66017183       0.00401092       0.01151854      -0.00066849
N       17.26495089      17.45524854      17.72259440      -0.00097702      -0.00123413       0.00354812
C       16.07698325      17.76108045      18.29961742      -0.00349670       0.00282821       0.00246826
H       15.56550658      13.64996905      22.76775055      -0.00210830      -0.00473083       0.01393538
H       15.50761372      13.61815999      20.97551910      -0.01501524       0.00879317       0.01007873
H       17.67791316      14.43920319      21.89527762      -0.01362685       0.00174835      -0.00020569
H       17.71695416      17.72921647      20.41568853      -0.00010284      -0.01079863       0.00359954
H       15.26398988      17.48370912      22.25713800       0.00262253       0.00421661       0.01054152
H       16.75808153      18.43024007      22.53159627       0.00298248      -0.00555358       0.00185119
H       16.34713136      16.00863993      23.77806897       0.00375381      -0.00020569       0.00200546
H       13.94325083      18.08505347      20.75279006       0.00185119       0.01486098       0.00380523
H       16.07037603      17.64567344      14.61795182       0.00257110       0.01059295       0.00570785
H       19.14023285      16.84706175      16.17078441      -0.01151854      -0.02334562       0.00910171
H       18.29540097      17.04634964      14.64209687      -0.00467941       0.01280409       0.00755904
O       18.61290237      20.12521783       7.76271342      -0.00262253      -0.00514221       0.01028441
P       18.36923331      18.93935360       6.59938555       0.01511809       0.01172423      -0.00910171
O       18.45172757      19.54700267       5.19181728       0.02673947       0.00298248      -0.01475813
O       17.10862264      18.18388436       7.02911071       0.01552946       0.01408965      -0.02062025
O       19.69995421      17.92391709       6.74852344      -0.01018157      -0.01023299       0.01840910
C       20.74541041      17.99234760       7.76157668      -0.00051422      -0.01023299       0.00210830
C       20.52485218      17.02698271       8.93464562       0.00030853      -0.00246826       0.00812469
O       19.49757578      17.57133071       9.83533055      -0.00545074      -0.00123413       0.00030853
C       20.04698280      15.59232236       8.53034090       0.00092560      -0.00329101       0.00781615
O       20.84237822      14.61291499       9.30004917       0.00596496      -0.00668487      -0.00061706
C       18.54704274      15.64698344       8.87503271      -0.00447372      -0.00586212       0.00097702
C       18.60130217      16.46435654      10.17188997      -0.00102844      -0.00334243       0.00277679
N       17.35174433      16.97986934      10.73762449       0.00611923       0.00030853      -0.00061706
C       17.27759565      17.08985350      12.16455965      -0.01691786       0.00647918      -0.00221115
O       18.31230785      16.85030265      12.84771629       0.00529647       0.00113129       0.00406234
N       16.09259228      17.43793765      12.74165980       0.00344528      -0.00226257       0.00200546
C       15.00749884      17.72380866      11.97639680      -0.00678771      -0.00020569      -0.00257110
N       13.86206001      18.04043905      12.61847584      -0.00020569      -0.00282821       0.00339386
C       15.07665836      17.69678570      10.53741939       0.02144300      -0.00735336      -0.00498794
C       16.26397423      17.32783112       9.96225711      -0.01522093       0.00077133       0.01110717
H       21.67842053      17.70793224       7.24667287      -0.00200546      -0.00467941      -0.00483367
H       20.84974080      19.01904992       8.14802046       0.00082275      -0.00791900      -0.01203276
H       21.47580090      16.94831889       9.49183054       0.00699340       0.00977019      -0.00010284
H       19.04866193      15.86157373      10.96860984       0.00848464       0.00303390       0.00596496
H       18.03465586      16.20225111       8.07665315       0.00051422       0.00000000      -0.00545074
H       18.08491440      14.66396724       8.98271822       0.01059295      -0.01429533       0.01336974
H       20.22409777      15.38051474       7.46567826       0.00771331      -0.00195404       0.00966735
H       16.41788328      17.32265070       8.88317153       0.00570785      -0.00766189      -0.00704482
H       14.21353556      17.96104582       9.92500402       0.00143982      -0.00262253      -0.00509078
H       13.83617564      18.10237970      13.65353995       0.00359954      -0.00179977      -0.00509078
H       13.01652471      18.25708835      12.09234169      -0.00390808      -0.00210830      -0.01064437
P       20.17414703      13.27787965      10.10008642       0.00622207      -0.00478225      -0.00318817
O       21.56909962      12.38267135      10.31653585       0.01090148      -0.00051422      -0.01285552
O       19.31273292      12.45736374       9.13490659       0.03028760      -0.00575927      -0.02077452
O       19.60138773      13.74722526      11.43803874      -0.01563231      -0.01054152      -0.00848464
C       22.51095964      12.62057843      11.40693881      -0.00401092       0.00478225      -0.00442230
C       22.39206701      11.59787309      12.54781824       0.00344528      -0.00025711      -0.01028441
O       21.21104571      11.88507212      13.35614141       0.00750762      -0.00591354      -0.00622207
C       22.27213019      10.10292169      12.13656239       0.00555358       0.00262253      -0.00992446
O       23.55619129       9.43761155      12.04895987       0.00622207       0.00570785      -0.00647918
C       21.44355696       9.49130580      13.28492300       0.00709625       0.00323959      -0.01208419
C       20.59618324      10.66611648      13.83390795       0.00750762      -0.00154266      -0.00843322
N       19.16421970      10.65787402      13.41430899       0.00164551       0.00113129      -0.00241684
C       18.13949982      10.85396710      14.39019016      -0.00051422       0.00447372      -0.00570785
O       18.46005121      11.01517006      15.60309149       0.00015427       0.01372969      -0.00318817
N       16.83529068      10.86266086      13.98227279      -0.00437088      -0.00395950       0.00118271
C       16.51114383      10.73648864      12.66978777      -0.00221115      -0.00575927       0.00159408
N       15.19968278      10.76654655      12.33589208      -0.00154266      -0.00750762      -0.00082275
C       17.52630505      10.58753554      11.66198231      -0.00560501      -0.00683913       0.00102844
C       18.82849060      10.57339682      12.07999066       0.00534789      -0.00550216      -0.00082275
H       23.51696426      12.52441897      10.96435504      -0.00195404       0.01475813       0.00699340
H       22.39529255      13.63942305      11.81002092      -0.00431945       0.00431945      -0.00092560
H       23.29300218      11.70831447      13.18437310      -0.00467941       0.00555358      -0.00329101
H       20.56812363      10.68222225      14.92842635       0.00380523       0.00118271      -0.00771331
H       20.82814720       8.63421912      12.97460470       0.00241684       0.00833037      -0.00992446
H       22.13301411       9.15562929      14.07724497       0.00195404       0.00334243      -0.01023299
H       21.75459936      10.01123753      11.16849771      -0.00905028       0.01609511      -0.00524505
H       19.65408901      10.51204731      11.37527236      -0.00066849      -0.00555358      -0.00087418
H       17.27526925      10.55162305      10.60197718       0.00257110      -0.00997588       0.00411377
H       14.49466773      11.07418193      13.03023695       0.00606780      -0.00545074       0.00694198
H       14.94436303      10.83154701      11.35019809       0.00483367      -0.00102844      -0.00416519
C       13.56760185      14.27777747      10.75180703       0.00359954      -0.00226257      -0.00267395
C       14.15486079      13.89730196       9.54728480      -0.00298248      -0.00015427      -0.00123413
C       15.53250708      13.55179507       9.47788533       0.00113129      -0.00097702       0.00030853
C       16.30851349      13.59923952      10.62526251      -0.00755904      -0.00401092      -0.00077133
C       15.74843898      13.98114307      11.88161517       0.00061706      -0.00303390      -0.00092560
C       16.55681359      13.97945056      13.05106320      -0.00380523      -0.00308532      -0.00257110
C       15.94172186      14.26921827      14.25347891      -0.00447372       0.00308532       0.00190262
N       16.44283335      14.27464689      15.54413674      -0.00401092       0.00231399      -0.00035995
C       15.41898781      14.57079843      16.43910012      -0.00293106       0.00164551      -0.00920455
C       15.47273142      14.63913919      17.83968629      -0.00653060      -0.00452514       0.00195404
C       14.28940786      14.95662219      18.51574613      -0.00241684      -0.00467941      -0.00822753
C       13.07822473      15.19519193      17.81880015      -0.00421661       0.00174835       0.00226257
C       13.01643823      15.12211077      16.42844385       0.00349670       0.00128555      -0.00411377
C       14.19904939      14.80923792      15.70669737      -0.00539932       0.00467941       0.00231399
C       14.53855449      14.61193212      14.31995854      -0.00313675       0.00354812      -0.00581069
N       13.78462337      14.67241460      13.18349039       0.00287964       0.00133697       0.00185119
C       14.34257269      14.32489874      11.94576722      -0.00179977      -0.00010284      -0.00570785
C       12.35373195      15.04942260      13.33082817       0.00519363       0.00370239      -0.00452514
H       12.50881427      14.52980645      10.75612506      -0.00169693      -0.00046280      -0.00375381
H       13.53702086      13.86511678       8.64577852       0.00143982      -0.00138840      -0.00452514
H       15.97736804      13.25396375       8.52464691      -0.00190262      -0.00113129      -0.00082275
H       17.36462620      13.33293583      10.60820863      -0.00236542      -0.00524505       0.00133697
H       17.61676547      13.72779281      12.97699575      -0.00617065      -0.00488510      -0.00293106
H       17.38828160      13.99609345      15.80514412      -0.00786758      -0.00015427      -0.00467941
H       16.40561470      14.47419861      18.37902822      -0.01085006      -0.01018157      -0.00390808
H       14.29872288      15.04457869      19.60082792      -0.00575927      -0.01079863      -0.00627349
H       12.17505047      15.44586973      18.37751748      -0.00077133      -0.00159408      -0.00318817
H       12.06547065      15.28407398      15.92723305       0.00277679       0.00473083       0.00143982
H       11.82649091      14.23473010      13.84984840      -0.00164551       0.01090148      -0.00318817
H       12.30121944      15.98139140      13.90661052       0.00087418       0.00426803      -0.00699340
H       11.89799897      15.22573907      12.35618642      -0.00149124       0.00447372       0.00195404
H        9.88402220      10.77728458      19.96234812      -0.00915313       0.00822753      -0.00910171
H       23.96217063       9.67127576      11.18477053      -0.00966735       0.01336974      -0.01074721
H       19.25188380      20.80339720       7.44406608      -0.00791900      -0.01172423      -0.00817611
H       18.86547171      16.65000620      22.57201459      -0.00421661      -0.00843322       0.00107986
