165
Properties=species:S:1:pos:R:3:forces:R:3 energy=-173317.36671453872 pbc="F F F"
P       -8.50031016      26.22266963       5.99235710      -0.02787076       0.01933470       0.01115859
O       -9.10470197      25.57610003       7.24517856      -0.02221433       0.00560501       0.02874494
O       -9.35983131      26.87226688       4.90905222      -0.02668805       0.00678771      -0.00915313
O       -7.40832968      27.42390976       6.40950809       0.00293106       0.01403822       0.01187850
C       -6.38725348      27.16274031       7.41400097       0.02072309       0.00200546       0.00678771
C       -5.23449595      28.16107180       7.25045261       0.00863891      -0.00941024      -0.01460387
O       -4.51272490      27.89112110       5.99719893      -0.00015427      -0.00221115       0.00051422
C       -5.64890171      29.65312229       7.18650085      -0.00586212      -0.02262571      -0.00215973
O       -4.57348632      30.41761585       7.82394818       0.01177565      -0.02170011       0.00282821
C       -5.73341877      29.92556283       5.67678790       0.00503936      -0.00087418       0.00092560
C       -4.59371668      29.04912716       5.12174541       0.00776473      -0.00802184       0.00889602
P       -4.67516127      32.09448911       7.92796609      -0.00411377       0.01583800       0.02375699
O       -3.75147448      32.48238723       9.08384148       0.01074721       0.00714767       0.02735654
O       -6.14451556      32.52157226       7.86550511      -0.02170011      -0.00555358       0.03800091
O       -4.01205186      32.58739469       6.46546044      -0.01326689       0.01126143      -0.00853606
C       -2.66773188      33.12777281       6.33713913       0.00442230       0.00092560       0.01419249
C       -2.68638174      34.64445359       6.08635978       0.00509078      -0.00673629       0.00421661
O       -3.35113169      34.92957826       4.81006413       0.00694198       0.00159408       0.01635222
C       -3.42638727      35.49391825       7.14625134       0.00786758      -0.01444960      -0.00215973
O       -2.72300118      36.77056405       7.23994507       0.00005142      -0.01187850      -0.00272537
C       -4.83952743      35.64919619       6.54643755       0.00431945       0.00344528       0.00236542
C       -4.54701398      35.72267086       5.03782778       0.00920455       0.00174835       0.00539932
H       -3.63559414      29.58288957       5.12976602       0.00215973       0.00185119       0.00179977
H       -5.59903109      30.98399992       5.43018078       0.01079863       0.00581069       0.01033584
H       -6.71191268      29.59341682       5.30281978       0.00267395       0.00380523      -0.00046280
H       -6.59542943      29.85207443       7.71064893      -0.00041138      -0.00313675       0.00221115
H       -4.53161629      27.99634693       8.08535161       0.00071991       0.02679090      -0.01316405
H       -6.82251402      27.26990154       8.42415704      -0.00647918      -0.01162139      -0.01007873
H       -4.34268464      36.75381659       4.70934526      -0.00395950       0.00750762       0.00797042
H       -5.36410004      36.54335681       6.91507154       0.00869033       0.01203276       0.00308532
H       -5.42556999      34.75651996       6.80347362      -0.00797042       0.00683913      -0.00714767
H       -3.44130324      35.00340927       8.13263672      -0.00000000      -0.00884460      -0.00411377
H       -3.22233233      37.33779922       7.86950011       0.01434676      -0.00303390       0.00251968
H       -1.63717960      34.98012764       5.99853716      -0.00390808       0.00287964       0.00632491
H       -2.20611236      32.62860974       5.46875770      -0.02087736      -0.00041138       0.01059295
H       -2.06553264      32.91772729       7.23504923      -0.00581069      -0.03265301       0.01789488
O       -5.83512242      36.75313652      -8.64470044       0.02062025      -0.00966735      -0.01630080
C       -4.72898776      37.68825656      -8.82519075       0.00771331       0.01105574       0.00174835
C       -3.86451937      37.81911517      -7.56802194      -0.02149442       0.01779204       0.00509078
O       -4.71922860      38.10071033      -6.40162400       0.00617065       0.00221115       0.00174835
C       -2.99350826      36.62080377      -7.12987585      -0.02823071       0.01624937      -0.01419249
O       -1.77203286      36.66007705      -7.90410192       0.00128555       0.01964323       0.00488510
C       -2.78141412      36.92722715      -5.63039740      -0.00313675       0.00329101       0.00483367
C       -4.12949005      37.53565280      -5.20902261       0.00210830       0.00185119       0.00092560
P       -0.76360313      35.32725463      -8.00336159       0.00339386      -0.00462799      -0.02252287
O        0.42109819      35.79112618      -8.85348640       0.02900205      -0.01604368      -0.01136428
O       -1.56230936      34.07200044      -8.36436168       0.00159408      -0.01177565      -0.02787076
O       -0.31325440      35.25049172      -6.38025819       0.01223845       0.00694198       0.00421661
C        0.88245396      34.48985429      -6.05497721       0.01069579       0.00447372       0.00416519
C        1.14152698      34.61207351      -4.54892889       0.00673629       0.00545074      -0.00426803
O        0.11638417      33.89314098      -3.77232199       0.01187850       0.00827895      -0.00791900
C        2.48961926      33.98011222      -4.13081323      -0.00195404       0.00827895      -0.01100432
O        2.94724468      34.69926107      -2.95144961       0.00406234      -0.00370239      -0.01079863
C        2.08700090      32.52996006      -3.80114689       0.00287964       0.00658202      -0.00123413
C        0.71934955      32.72989027      -3.12633618      -0.00102844       0.01049010      -0.00329101
H       -4.03282953      38.32500816      -4.45558336      -0.00797042      -0.00164551       0.00401092
H       -1.98677968      37.68378465      -5.53312031       0.00442230       0.00791900      -0.00344528
H       -2.51624386      36.05671378      -5.02253575      -0.00344528      -0.00365097       0.01424391
H       -3.50983579      35.65990435      -7.28699865       0.00329101      -0.00467941      -0.00843322
H       -3.19098548      38.68411408      -7.72341343       0.00853606      -0.01506667       0.00905028
H       -5.11726193      38.67908033      -9.10542686      -0.00586212      -0.00694198      -0.01172423
H       -4.09982904      37.31234091      -9.64957775       0.02586530       0.00370239       0.02391126
H        0.82187654      32.93086824      -2.04987259      -0.00354812      -0.00133697       0.00282821
H        2.80515498      32.02454985      -3.13794989       0.00462799      -0.00416519      -0.00308532
H        1.98827233      31.94345483      -4.72948058      -0.00632491      -0.00303390       0.00421661
H        3.24758714      34.03928319      -4.93021586       0.00771331       0.00308532       0.00421661
H        1.08997244      35.67123093      -4.24943338       0.00534789       0.00277679      -0.00565643
H        1.74439262      34.90990127      -6.60301845       0.00257110      -0.00416519      -0.00961593
H        0.75350016      33.43046139      -6.34001962      -0.00375381       0.01311263      -0.00483367
O       -7.49401364      25.10327525       5.24083821       0.02056883      -0.01470671      -0.02360273
H       -7.43043121      24.28958555       5.78841019       0.02751081       0.00827895       0.02298566
O       -7.49127509      38.00128151      -7.04313672      -0.00848464       0.00185119       0.01198134
P       -7.41083646      37.36422557      -8.59303520      -0.00781615      -0.00689056      -0.02082594
O       -7.57175682      38.49417989      -9.61925120       0.01038726       0.00946166      -0.01856337
O       -8.33443490      36.14542821      -8.64446929      -0.02519681      -0.00539932       0.00375381
H        3.71849220      34.21298483      -2.58391269       0.01208419       0.00822753      -0.00915313
H       -6.58068105      38.18115093      -6.68736486      -0.00051422      -0.00941024       0.00817611
H       -5.98723081      26.14038000       7.29915204      -0.01568373      -0.00313675       0.00401092
N       -5.61423420      35.22589838       4.15886203       0.00421661       0.00992446      -0.00092560
C       -6.74378412      34.73507134       2.29331191       0.00431945      -0.00478225      -0.00694198
N       -7.39151872      34.06292845       3.33386084      -0.00154266      -0.00349670      -0.00185119
C       -6.68254677      34.36656595       4.41909035       0.00179977      -0.00221115       0.02416837
H       -6.88515151      33.99014475       5.41839418      -0.00807326       0.00761047       0.00730193
N       -6.04572521      35.47861664       0.13988786       0.00529647      -0.00210830      -0.00149124
C       -5.04179888      36.15173068       0.74977168      -0.00015427       0.00411377       0.00195404
H       -4.38059225      36.69942693       0.07392546       0.00848464       0.01249556       0.01126143
N       -4.75641604      36.19840635       2.06685528      -0.00663345       0.00766189      -0.00750762
C       -5.63863706      35.46247388       2.78710384       0.00071991      -0.00185119       0.00051422
C       -6.92685775      34.74055763       0.88117993       0.00483367       0.00169693       0.01280409
N       -7.91729777      34.07614528       0.22653288      -0.01295836       0.01259841      -0.01300978
H       -8.41285398      33.33412947       0.72109730      -0.01064437      -0.00205688      -0.00452514
H       -7.84242480      33.98742263      -0.80011023      -0.00282821      -0.02277998       0.00473083
N       -0.20845006      31.60613231      -3.23883789      -0.00272537       0.00416519       0.00575927
C       -1.81872535      30.13808526      -2.76790800      -0.01336974      -0.00118271       0.00380523
N       -1.70649190      30.16072858      -4.16169921      -0.00591354      -0.00066849      -0.00313675
C       -0.74592208      31.04979564      -4.39984792       0.01439818       0.01136428      -0.01871763
H       -0.40486503      31.35866310      -5.38472264       0.00647918       0.00287964      -0.00277679
N       -2.51794297      29.65316585      -0.54046741      -0.00133697      -0.00025711       0.00200546
C       -1.55094642      30.49557344      -0.10598185       0.00308532       0.00123413      -0.00077133
H       -1.48024287      30.59258159       0.98081044       0.01239272       0.00884460       0.00138840
N       -0.70294321      31.23673036      -0.84974994      -0.00586212      -0.00581069       0.00596496
C       -0.88886510      31.01875853      -2.17430999      -0.00550216      -0.00077133      -0.00056564
C       -2.70721886      29.46448594      -1.88376155       0.00894744       0.00817611      -0.00575927
N       -3.71339337      28.65006374      -2.29197833      -0.00663345      -0.01522093       0.00344528
H       -4.00127766      28.67971592      -3.27019455      -0.00262253      -0.00935882      -0.00689056
H       -4.40284259      28.32344224      -1.59512710      -0.00730193      -0.00205688      -0.01645506
N       -4.79513531      28.58615594       3.73212084       0.00118271       0.00035995      -0.00287964
C       -5.95422006      27.89117657       3.39930156      -0.00205688       0.00128555       0.00365097
H       -6.59223350      27.64955539       4.24795989      -0.00452514       0.00514221       0.00010284
C       -3.82586555      28.89177950       2.75761136       0.01594084       0.00179977      -0.00071991
O       -2.74040027      29.45070471       3.01197426       0.00010284      -0.00812469      -0.01069579
N       -4.18295942      28.53615298       1.46515254      -0.00462799      -0.00149124      -0.00226257
H       -3.53493245      28.89419123       0.71051096       0.00318817      -0.00663345       0.00601638
C       -5.36447197      27.91342419       1.05316289      -0.00246826      -0.00318817       0.00323959
O       -5.57601250      27.71753125      -0.17590554       0.00262253      -0.00303390      -0.00452514
C       -6.28119934      27.52797622       2.12060665      -0.00313675      -0.00190262      -0.00395950
C       -7.54498568      26.77172955       1.78027965      -0.00395950       0.00277679      -0.00061706
H       -8.12510415      27.31114196       1.01115426      -0.00694198       0.00071991       0.00143982
H       -8.17472607      26.63954848       2.67304044       0.00025711      -0.00118271      -0.00097702
H       -7.30545738      25.77545258       1.36541931      -0.00827895       0.00632491      -0.00683913
N       -5.06294154      36.52026973      -4.61326102      -0.00406234      -0.00370239       0.00812469
C       -5.89770570      35.72549888      -5.38732212       0.00195404      -0.00113129      -0.00272537
H       -5.80850795      35.87214212      -6.46211085       0.00575927       0.00179977       0.00272537
C       -5.02463900      36.38959464      -3.21719863      -0.00365097      -0.00143982       0.00694198
O       -4.23260109      37.03883938      -2.49887869      -0.00113129      -0.00005142       0.01049010
N       -5.93216053      35.48455089      -2.69407040      -0.00493652      -0.00282821       0.00313675
H       -5.96891438      35.43132166      -1.63833163       0.00092560       0.00781615      -0.00437088
C       -6.85540405      34.70983012      -3.40661296       0.00143982       0.00308532      -0.00833037
O       -7.65189693      33.95814154      -2.78009024      -0.00421661      -0.00226257       0.01372969
C       -6.79801612      34.83770216      -4.85594351      -0.00735336      -0.00838180       0.00318817
C       -7.74494763      34.01747132      -5.70070849       0.00313675       0.00133697      -0.00149124
H       -7.55541136      32.93894957      -5.56967289      -0.00627349       0.00323959       0.00174835
H       -7.64293857      34.26958600      -6.76677431       0.01372969      -0.00678771       0.00200546
H       -8.79039978      34.20451718      -5.39694459       0.00179977       0.00205688      -0.01300978
C       -5.82695110      31.39824363       1.15528267      -0.00025711      -0.00457656       0.00349670
C       -5.52777599      31.56172529       2.50219273       0.00118271      -0.00437088      -0.00560501
C       -4.41723517      32.33834245       2.92547136      -0.00190262      -0.00750762       0.00581069
C       -3.62026319      32.96279646       1.97906367       0.00426803       0.00113129      -0.00272537
C       -3.89718046      32.83710680       0.58181648      -0.00329101      -0.00133697       0.00174835
C       -3.08753978      33.48600553      -0.38954361      -0.00041138       0.00509078       0.00313675
C       -3.38393850      33.27753617      -1.72458782      -0.00575927       0.00087418      -0.00761047
N       -2.74313690      33.73703197      -2.86537537       0.00869033       0.00118271      -0.00493652
C       -3.35116533      33.17995706      -3.98664360      -0.00401092      -0.00159408      -0.00149124
C       -2.97705140      33.32425344      -5.33262555       0.00565643       0.00272537      -0.00833037
C       -3.74796121      32.65983612      -6.29371641      -0.00030853      -0.00308532      -0.00241684
C       -4.84475607      31.83678349      -5.92077108       0.00221115      -0.00056564      -0.00411377
C       -5.20523981      31.67441723      -4.57911851      -0.00246826      -0.00118271      -0.00082275
C       -4.46939897      32.36662154      -3.57962342      -0.00154266       0.00339386      -0.00565643
C       -4.49436033      32.44439199      -2.13608845      -0.00411377       0.00334243      -0.00215973
N       -5.32156856      31.90195014      -1.19498963      -0.00205688      -0.00097702      -0.00416519
C       -5.02830773      32.03445379       0.16837162      -0.00020569      -0.00123413      -0.00077133
C       -6.53555622      31.15600998      -1.62334169      -0.00365097      -0.00601638      -0.00375381
H       -6.66555873      30.76361068       0.87755217      -0.00426803       0.00071991      -0.00498794
H       -6.17009372      31.07871455       3.23811014      -0.00154266      -0.00185119       0.00133697
H       -4.21090959      32.46344083       3.98862644      -0.00174835      -0.00354812      -0.00056564
H       -2.77585789      33.58446648       2.28512540      -0.00118271      -0.00149124       0.00545074
H       -2.24527210      34.10888746      -0.07956373      -0.00524505       0.00128555       0.00035995
H       -1.80978862      34.16112136      -2.88616138      -0.00647918       0.00447372      -0.01126143
H       -2.10187548      33.90916867      -5.61212660       0.00133697       0.00071991      -0.00282821
H       -3.47500419      32.77425556      -7.34532313       0.00123413      -0.00282821      -0.00519363
H       -5.41868769      31.31956942      -6.69433363       0.00082275      -0.00195404      -0.00077133
H       -6.03640857      31.01906183      -4.32291987       0.00143982      -0.00375381      -0.00277679
H       -7.34520580      31.34564603      -0.91135219      -0.00817611      -0.01100432      -0.00699340
H       -6.85683858      31.54675384      -2.58998752      -0.00894744      -0.00776473      -0.00385666
H       -6.30716107      30.08174726      -1.67420218      -0.00709625      -0.00740478      -0.00755904
