165
Properties=species:S:1:pos:R:3:forces:R:3 energy=-173317.3141580264 pbc="F F F"
P       -7.92465734      25.70131468       5.94829393      -0.00755904       0.00668487       0.01249556
O       -8.53472659      24.88301546       7.09243852      -0.00231399       0.00673629       0.01727781
O       -8.76616331      26.23126719       4.78506686      -0.02020887       0.00395950       0.02056883
O       -7.14940603      27.06690078       6.52839581       0.00719909       0.01038726      -0.00205688
C       -6.11274716      26.95739877       7.54342667       0.00154266       0.00817611       0.00647918
C       -5.11492722      28.11708813       7.39668799       0.00699340       0.00277679       0.00473083
O       -4.39074958      27.99484367       6.12400500      -0.00041138      -0.00164551       0.00159408
C       -5.71529011      29.54555921       7.39406698       0.00282821      -0.00107986      -0.00087418
O       -4.69538347      30.42451236       7.98000022       0.00617065      -0.00190262      -0.00159408
C       -5.93612140      29.82134066       5.89866880       0.00154266      -0.00221115      -0.00077133
C       -4.73702653      29.10417802       5.24897610      -0.00138840      -0.00344528      -0.00056564
P       -4.90822214      32.09674231       8.00647304      -0.00869033      -0.00133697       0.02134016
O       -4.05206814      32.59298771       9.17327655      -0.01013015      -0.00473083       0.02540250
O       -6.39664528      32.42833454       7.86933038      -0.01295836      -0.00786758       0.04725688
O       -4.22764865      32.57671039       6.54796570      -0.02046598       0.00822753       0.00730193
C       -2.87711687      33.10552626       6.42837492      -0.00956450      -0.00822753      -0.00082275
C       -2.87769809      34.62075516       6.16455249       0.00087418      -0.00493652       0.00185119
O       -3.53016770      34.90233246       4.88041369       0.00365097       0.00025711       0.00020569
C       -3.61454257      35.48757939       7.21117879      -0.00159408      -0.00349670       0.00267395
O       -2.89057451      36.75277767       7.30307637       0.00416519      -0.00627349       0.01085006
C       -5.01654137      35.66573219       6.59202192      -0.00041138       0.00174835       0.00282821
C       -4.69443268      35.74757650       5.09050123       0.00195404      -0.00020569       0.00231399
H       -3.86674433      29.77080103       5.16073789      -0.00107986      -0.00421661       0.00097702
H       -5.95484197      30.88984240       5.65715452       0.00632491      -0.00097702       0.00411377
H       -6.88720688      29.36886026       5.58647547       0.00318817      -0.00406234      -0.00406234
H       -6.63929955      29.62041670       7.98737003      -0.00169693       0.00051422      -0.00807326
H       -4.37659542      28.01984873       8.21036731       0.01105574       0.01537520       0.00390808
H       -6.57136180      26.98500289       8.54825949      -0.00221115       0.01208419       0.00550216
H       -4.44180778      36.77428100       4.78159740       0.01290694      -0.00215973       0.00246826
H       -5.53910612      36.56075096       6.96142087       0.01167281       0.00899886       0.00236542
H       -5.61540352      34.77408185       6.82400856      -0.01038726       0.00894744       0.01192992
H       -3.64827600      35.00201714       8.19897509      -0.00858749      -0.00452514       0.00082275
H       -3.38596799      37.33224809       7.92428285       0.01074721       0.00421661       0.00735336
H       -1.82428464      34.94473395       6.08351201       0.00200546      -0.00545074       0.00462799
H       -2.41813421      32.59576790       5.56562106       0.01110717      -0.00863891       0.00611923
H       -2.28149928      32.89546447       7.33158677      -0.02247144      -0.02504255       0.00221115
O       -5.74249544      36.73672074      -8.65121705       0.00910171      -0.01115859       0.00138840
C       -4.63315687      37.67082273      -8.82119424       0.01115859      -0.00714767       0.00272537
C       -3.77354104      37.78551212      -7.56024783       0.00730193      -0.00241684       0.00570785
O       -4.63085673      38.09088221      -6.40046938       0.00637634       0.00251968       0.00334243
C       -2.94211360      36.56308106      -7.10869197      -0.00113129      -0.00565643       0.00313675
O       -1.71214562      36.53308706      -7.87505922      -0.00802184      -0.00735336      -0.00812469
C       -2.72708167      36.87705908      -5.61057326       0.00272537       0.00287964       0.00329101
C       -4.06032850      37.52169650      -5.19886204       0.00149124       0.00365097       0.00447372
P       -0.77256540      35.13964842      -7.90765294       0.00689056       0.00339386      -0.00560501
O        0.41815421      35.45644134      -8.81507362       0.00437088       0.01475813      -0.00725051
O       -1.65604636      33.91607653      -8.16726485       0.00951308       0.00066849      -0.00349670
O       -0.29474772      35.15008983      -6.29191038       0.00848464       0.01424391      -0.00380523
C        0.91689898      34.44085023      -5.91365985       0.00534789       0.00611923      -0.00395950
C        1.05735812      34.52877318      -4.38936440       0.00241684       0.00431945      -0.00359954
O       -0.03571307      33.80311748      -3.72047275      -0.00118271       0.00349670      -0.00925597
C        2.36501034      33.89112333      -3.85912181       0.00000000       0.00015427      -0.00478225
O        2.74068231      34.64115574      -2.66850390       0.01162139       0.00035995      -0.00822753
C        1.92648181      32.45361361      -3.51509155      -0.00257110       0.00133697      -0.00421661
C        0.51757066      32.69506600      -2.94961445      -0.00313675       0.00195404      -0.00761047
H       -3.94469363      38.31632465      -4.45375141      -0.01136428      -0.00154266       0.01234130
H       -1.91447502      37.61506932      -5.51838508       0.00365097       0.00493652       0.00077133
H       -2.48426963      36.00658294      -4.99354177      -0.00694198      -0.00061706       0.00010284
H       -3.49571127      35.62249411      -7.25756233      -0.00313675      -0.00606780       0.00442230
H       -3.07820511      38.63265342      -7.71618042       0.01588942      -0.00586212       0.02283140
H       -5.01563044      38.66545505      -9.09786201       0.00082275      -0.01367827       0.00123413
H       -3.99833570      37.29749323      -9.64204141       0.01069579       0.00082275      -0.00236542
H        0.55584519      32.97324003      -1.88917948      -0.00678771       0.00560501      -0.00951308
H        2.58889551      31.96630383      -2.78320459      -0.00251968       0.00529647      -0.00241684
H        1.89570617      31.83877834      -4.42930161      -0.00442230      -0.00704482       0.00097702
H        3.18465924      33.92315367      -4.59683982      -0.01275267      -0.00786758      -0.01794630
H        0.98638279      35.58288165      -4.07508750       0.00313675       0.00807326      -0.01516951
H        1.79154256      34.92376339      -6.38480497       0.00133697       0.00786758      -0.00982161
H        0.86953934      33.38792553      -6.24362959      -0.00030853       0.00606780      -0.00323959
O       -6.63639660      24.83440957       5.29528027      -0.01614653       0.00077133      -0.00905028
H       -6.51071102      23.99800713       5.79687637       0.02303709       0.02684232       0.02509397
O       -7.40218501      38.01842312      -7.07465079       0.00555358      -0.00406234      -0.01378111
P       -7.32030330      37.34420010      -8.61017265       0.00529647      -0.00159408      -0.01722639
O       -7.48298074      38.45092673      -9.66143970      -0.00205688       0.00637634      -0.01064437
O       -8.23999280      36.12131024      -8.63253905      -0.01100432       0.00910171      -0.02195722
H        3.46818761      34.15350084      -2.22176639       0.01979750       0.01105574      -0.00843322
H       -6.49146415      38.17486884      -6.70842913      -0.00663345       0.00719909       0.01321547
H       -5.55878861      26.00994031       7.42845220      -0.01892332      -0.00035995      -0.00344528
N       -5.76398789      35.30543966       4.18697012      -0.00323959       0.00467941       0.00401092
C       -6.86900401      34.84420125       2.29917422      -0.00005142       0.00005142       0.00066849
N       -7.56232864      34.20077828       3.32761435      -0.00339386       0.00308532       0.00041138
C       -6.86726746      34.48481286       4.42673818      -0.00519363       0.00483367       0.00431945
H       -7.10933482      34.12418979       5.42307887      -0.00056564       0.00293106       0.00143982
N       -6.10256474      35.55361434       0.15715563      -0.00257110       0.00735336       0.00694198
C       -5.09494708      36.20402439       0.78562095       0.00020569       0.00005142       0.01018157
H       -4.40639611      36.73601193       0.12324534      -0.00385666      -0.00133697       0.00725051
N       -4.83527373      36.24758941       2.10842478       0.00395950      -0.00416519       0.00827895
C       -5.75184621      35.53873902       2.81362051       0.00005142      -0.00169693       0.00493652
C       -7.02117973      34.84471260       0.88307619      -0.00246826       0.00555358       0.00293106
N       -8.01397911      34.20336534       0.21138577      -0.00519363       0.01085006      -0.00138840
H       -8.56350789      33.49735327       0.70152339       0.01383254       0.00149124       0.00838180
H       -7.92792579      34.10899265      -0.81434363      -0.00318817       0.00611923      -0.00082275
N       -4.99327403      28.60790235       3.89434402      -0.00231399      -0.00169693      -0.00380523
C       -4.87791664      28.30331744       1.68811782       0.00416519      -0.00570785      -0.00509078
N       -6.08230830      27.72611585       2.09942991       0.00293106      -0.00509078      -0.00869033
C       -6.11691293      27.93234780       3.41414983      -0.00092560      -0.00262253      -0.00678771
H       -6.91388675      27.60230681       4.07388883       0.00339386       0.00406234      -0.00298248
N       -3.14024199      29.22977910       0.35042944       0.00534789      -0.00797042       0.00102844
C       -2.56269393      29.67345865       1.49330414       0.00236542      -0.01146712       0.00349670
H       -1.63969648      30.24244331       1.35190179       0.00226257      -0.01573515      -0.00046280
N       -3.00528383      29.52105230       2.75682344       0.00123413      -0.00905028       0.00303390
C       -4.18040876      28.84571541       2.78864080       0.00025711      -0.00642776      -0.00133697
C       -4.31379697      28.52603288       0.40259706       0.00478225      -0.00565643      -0.00447372
N       -4.86951804      28.10818038      -0.76045816       0.00689056      -0.00267395      -0.00622207
H       -5.77965260      27.65046651      -0.76008516       0.00092560       0.00606780       0.00323959
H       -4.42576431      28.35008323      -1.66061598       0.00293106      -0.00015427      -0.00766189
N       -0.42653522      31.56579174      -3.03690955       0.00035995      -0.00185119      -0.00488510
C       -0.79507281      31.04703943      -4.27304678       0.00215973       0.00077133      -0.00622207
H       -0.26948677      31.47584893      -5.12495386      -0.00447372       0.00653060      -0.00678771
C       -1.03614625      31.11226035      -1.84972061       0.00092560      -0.00071991      -0.00195404
O       -0.70563852      31.50711509      -0.71300276       0.00488510       0.00277679      -0.00503936
N       -2.05096348      30.19229865      -2.04242114      -0.00195404      -0.00123413       0.00005142
H       -2.49738771      29.82662587      -1.15070673      -0.00010284      -0.00555358       0.00210830
C       -2.47358056      29.63408145      -3.25381791       0.00277679      -0.00041138      -0.00457656
O       -3.41767665      28.79691734      -3.25941799       0.00380523      -0.00205688      -0.01115859
C       -1.76248833      30.09269018      -4.44048909       0.00087418       0.00041138      -0.00586212
C       -2.14347139      29.53901578      -5.79279671       0.00303390       0.00118271      -0.00750762
H       -1.98069196      28.44713526      -5.83162665       0.00874175       0.00221115      -0.00411377
H       -1.55152159      30.01463026      -6.59006027       0.00267395      -0.00246826      -0.01018157
H       -3.21171375      29.71918954      -5.99609892       0.00308532      -0.00195404      -0.01234130
N       -5.02463835      36.53913958      -4.59523133      -0.00401092       0.00226257       0.00318817
C       -5.88080333      35.76279704      -5.36535925      -0.00025711       0.00447372       0.00030853
H       -5.77031009      35.88422945      -6.44102109       0.00041138       0.00005142       0.00169693
C       -5.00941956      36.43091184      -3.19623849       0.00082275       0.00406234       0.00699340
O       -4.20569188      37.06309356      -2.47556919      -0.00354812       0.00303390      -0.00313675
N       -5.95558654      35.56777782      -2.67116028      -0.00087418      -0.00503936       0.00565643
H       -6.00109278      35.52423962      -1.61535918      -0.00653060      -0.00025711       0.00879317
C       -6.90049785      34.81925652      -3.38166564      -0.00133697      -0.00498794       0.00056564
O       -7.73269123      34.10772130      -2.75345109      -0.00303390      -0.00498794      -0.00827895
C       -6.82492078      34.92373549      -4.83085436       0.00123413      -0.00195404      -0.00071991
C       -7.79799249      34.13335216      -5.67330732       0.00380523      -0.00071991      -0.00673629
H       -7.61982336      33.04977465      -5.57025877      -0.00431945      -0.00123413       0.00087418
H       -7.71530261      34.41163460      -6.73411558       0.00961593      -0.01316405      -0.00997588
H       -8.83373765      34.32532784      -5.34119996       0.00174835       0.00920455      -0.01907759
C       -6.04308167      31.43177873       1.29968324      -0.00071991      -0.00030853       0.00035995
C       -5.76913882      31.59794206       2.65161841      -0.00035995      -0.00478225       0.00020569
C       -4.67047361      32.37970631       3.09377570       0.00102844      -0.00822753       0.00066849
C       -3.84917313      32.99383271       2.16216503      -0.00035995      -0.00683913      -0.00164551
C       -4.08527843      32.84774577       0.75865029      -0.00267395      -0.00118271      -0.00123413
C       -3.23951482      33.47038087      -0.19878264      -0.00426803       0.00462799       0.00051422
C       -3.51330554      33.26359207      -1.53977341      -0.00606780       0.00529647      -0.00118271
N       -2.84734830      33.70857372      -2.67296050      -0.00380523       0.00277679      -0.00025711
C       -3.45969688      33.17839489      -3.80556694      -0.00365097       0.00133697       0.00005142
C       -3.07441614      33.31843842      -5.15002359      -0.00426803       0.00133697       0.00020569
C       -3.86057070      32.68123771      -6.11695059      -0.00123413       0.00041138      -0.00138840
C       -4.98146220      31.88732623      -5.75527963       0.00051422      -0.00164551      -0.00169693
C       -5.35006473      31.72299524      -4.41757605       0.00071991      -0.00087418      -0.00169693
C       -4.60047639      32.39004235      -3.41110715      -0.00267395       0.00082275      -0.00046280
C       -4.63591408      32.45953922      -1.96809253      -0.00519363       0.00318817      -0.00010284
N       -5.49357537      31.93612008      -1.04311518      -0.00406234      -0.00066849      -0.00185119
C       -5.22217879      32.06066116       0.32574894      -0.00236542      -0.00056564      -0.00123413
C       -6.72024232      31.23817491      -1.51514197      -0.00287964      -0.00488510      -0.00205688
H       -6.87450158      30.79409399       1.00710030      -0.00190262       0.00349670      -0.00185119
H       -6.41704242      31.10775912       3.37976414      -0.00051422      -0.00534789       0.00046280
H       -4.49226711      32.51268805       4.16025291       0.00313675      -0.01079863      -0.00000000
H       -3.01570513      33.62049830       2.48678549      -0.00056564      -0.00827895      -0.00215973
H       -2.39336088      34.07982773       0.12649605      -0.00493652       0.00493652      -0.00010284
H       -1.92333869      34.15011841      -2.68306569      -0.00699340       0.00853606      -0.00277679
H       -2.17826826      33.87227606      -5.42543136      -0.00534789       0.00282821       0.00107986
H       -3.57498170      32.78693891      -7.16531804      -0.00010284      -0.00051422      -0.00133697
H       -5.56011274      31.38540488      -6.53506730       0.00159408      -0.00215973      -0.00226257
H       -6.19601398      31.08461243      -4.16702449       0.00195404      -0.00241684      -0.00287964
H       -7.51044949      31.33613344      -0.76561974      -0.00323959      -0.00509078      -0.00241684
H       -7.06687189      31.73754734      -2.42361523      -0.00257110      -0.00797042      -0.00421661
H       -6.49289288      30.17780990      -1.69951041      -0.00221115      -0.00539932      -0.00030853
