165
Properties=species:S:1:pos:R:3:forces:R:3 energy=-173260.32492342734 dipole="1.3504893461055036 2.4363832076253495 -3.58547246998515" pbc="F F F"
O        7.75140147      -7.28581917       4.40497305       0.00030853       0.00313675      -0.00154266
P        7.80697083      -5.96081988       3.21713573      -0.00221115      -0.00138840      -0.00179977
O        9.30144501      -5.76889655       2.59485536      -0.00565643       0.00087418      -0.00437088
O        6.99936457      -4.72089471       3.89697936       0.00164551      -0.00349670       0.00287964
O        6.71364102      -6.66818688       1.98247959       0.00308532      -0.00293106      -0.00231399
C        7.27346071      -7.04997535       0.65762534      -0.00267395      -0.00231399       0.00097702
C        6.98259971      -6.00364246      -0.43113637      -0.00030853      -0.00354812       0.00231399
O        5.50193242      -5.74654408      -0.50330188       0.00380523       0.00107986      -0.00046280
C        7.61696979      -4.60489120      -0.23623983       0.00344528      -0.00503936      -0.00133697
O        7.78243584      -4.07031998      -1.63527780      -0.00647918      -0.00061706      -0.00226257
C        6.55394309      -3.83926097       0.56556972       0.00740478      -0.00010284       0.00041138
C        5.23578061      -4.34398397      -0.04253412       0.00380523       0.00308532       0.00056564
N        4.09351259      -4.32414796       0.86948925      -0.00097702       0.00617065      -0.00159408
C        4.06622249      -4.38305797       2.27916391       0.00215973       0.00046280      -0.00035995
N        2.81713675      -4.28141271       2.76929021       0.00046280       0.00046280       0.00179977
C        1.99007877      -4.16448435       1.63039042      -0.00210830       0.00169693       0.00185119
C        0.58452200      -3.98820186       1.49174379      -0.00051422      -0.00185119       0.00061706
N       -0.27402906      -3.89649067       2.53461711      -0.00185119      -0.00133697      -0.00215973
N        0.08699073      -3.89488636       0.20179750      -0.00195404      -0.00061706       0.00092560
C        0.93935926      -3.95999307      -0.86853301      -0.00210830      -0.00421661       0.00164551
N        2.29260171      -4.10352579      -0.83318409      -0.00257110       0.00107986      -0.00015427
C        2.76409020      -4.19795426       0.44855219      -0.00308532      -0.00149124       0.00113129
H        8.35998723      -7.22620715       0.72709580      -0.00406234       0.00226257      -0.00190262
H        6.76743890      -7.99040020       0.39193290      -0.00401092       0.00082275      -0.00241684
H        7.28899774      -6.42438152      -1.40327058       0.00210830       0.00534789       0.00077133
H        4.94462058      -3.75384680      -0.91860164      -0.00318817      -0.00226257      -0.00179977
H        6.63829383      -4.10710980       1.62519726       0.00323959       0.00133697       0.00293106
H        6.67046800      -2.75754707       0.48607227      -0.00210830       0.00138840      -0.00519363
H        8.59835315      -4.63523729       0.25861356       0.00051422      -0.00226257       0.00493652
H        4.96829045      -4.49371666       2.87564528      -0.00051422      -0.00323959       0.00185119
H        0.08787135      -3.91653117       3.48504788      -0.00128555       0.00082275      -0.00000000
H       -1.26706709      -3.65602679       2.37065620       0.00231399      -0.00221115      -0.00221115
H        0.46152070      -3.88128952      -1.84473280      -0.00154266      -0.00205688       0.00339386
P        7.81484896      -2.31639506      -2.00180296       0.00138840       0.00071991       0.00061706
O        8.46704524      -2.24915540      -3.49000323       0.00128555      -0.00473083      -0.00020569
O        8.33590711      -1.42022240      -0.75129101      -0.00082275      -0.00082275       0.00293106
O        6.05200993      -1.92968453      -2.08871484       0.00149124       0.00015427       0.00395950
C        5.30209960      -2.31521321      -3.31849821       0.00077133      -0.00164551      -0.00020569
C        4.91414700      -1.07425550      -4.12377095       0.00246826       0.00154266      -0.00056564
O        4.01163078      -0.20916348      -3.26957664       0.00077133      -0.00257110       0.00102844
C        6.08653221      -0.15483992      -4.55444428       0.00226257       0.00380523       0.00077133
O        5.73592316       0.32987652      -5.91380673      -0.00586212      -0.00210830      -0.00380523
C        6.06970820       1.00284265      -3.52577388      -0.00467941       0.00437088       0.00421661
C        4.56683833       1.20300663      -3.28370463      -0.00066849       0.00257110       0.00154266
N        4.18286259       1.83397452      -2.02779255       0.00359954      -0.00025711      -0.00210830
C        4.91141070       1.93015616      -0.82194659      -0.00231399      -0.00056564      -0.00251968
N        4.15073838       2.32422778       0.21076660      -0.00010284      -0.00401092      -0.00421661
C        2.85618886       2.48216047      -0.33128343       0.00329101       0.00797042      -0.00421661
C        1.58716604       2.71332076       0.27865558       0.00035995      -0.00653060      -0.00313675
N        1.37345697       2.79925803       1.61181983       0.00128555       0.00097702       0.00025711
N        0.49703468       2.80917492      -0.57303818      -0.00020569       0.00174835      -0.00010284
C        0.64850669       2.60633378      -1.91563983      -0.00066849      -0.00138840      -0.00066849
N        1.79451235       2.26126334      -2.56721404       0.00498794       0.00411377       0.00498794
C        2.86527778       2.21159168      -1.71996201       0.00365097      -0.00498794      -0.00005142
H        5.90131147      -2.98895471      -3.95308270       0.00133697      -0.00416519      -0.00097702
H        4.39888005      -2.84450473      -2.97517973      -0.00344528       0.00133697       0.00056564
H        4.34141204      -1.38029918      -5.01483338      -0.00262253      -0.00329101       0.00293106
H        4.07758545       1.73923706      -4.10844149      -0.00061706      -0.00390808      -0.00159408
H        6.57129636       0.66463502      -2.60742685       0.00236542       0.00087418      -0.00138840
H        6.56457268       1.90862103      -3.90419651      -0.00169693      -0.00087418       0.00164551
H        7.04906293      -0.68946698      -4.56142439       0.00241684      -0.00447372       0.00128555
H        5.96487428       1.68841255      -0.76037160      -0.00365097       0.00411377      -0.00030853
H        2.14160695       2.64599059       2.26115555       0.00149124      -0.00066849      -0.00221115
H        0.40541088       2.83093325       1.97558040       0.00030853      -0.00077133       0.00241684
H       -0.26015380       2.71246303      -2.50756290      -0.00293106       0.00000000      -0.00159408
O       -6.44771313       5.34080603       1.84646073       0.00241684       0.00030853      -0.00287964
P       -7.77067320       4.51697734       2.68452006      -0.00174835      -0.00169693      -0.00385666
O       -9.08608926       5.47755397       2.70595263      -0.00200546      -0.00082275       0.00344528
O       -7.20935632       3.81585310       4.03793500      -0.00303390       0.00149124      -0.00190262
O       -8.05155104       3.13629001       1.52727372      -0.00190262      -0.00457656      -0.00164551
C       -8.75178335       3.50127373       0.26440515      -0.00020569       0.00020569      -0.00318817
C       -7.81504859       3.42664171      -0.93848254       0.00277679       0.00025711      -0.00107986
O       -6.57970714       4.26633500      -0.68120092       0.00272537      -0.00210830       0.00133697
C       -7.24581541       2.03937209      -1.29958166       0.00154266       0.00087418       0.00015427
O       -8.25258797       1.35401817      -2.14272807      -0.00426803       0.00478225      -0.00035995
C       -5.94502092       2.38704817      -2.06419776       0.00262253       0.00339386       0.00169693
C       -5.40221709       3.63252113      -1.33280937       0.00334243      -0.00005142       0.00354812
N       -4.37322294       3.30962847      -0.28742813       0.00267395       0.00560501       0.00190262
C       -3.01970171       3.38590873      -0.69487380      -0.00000000      -0.00215973      -0.00159408
O       -2.68542417       3.62034198      -1.89980634      -0.00251968       0.00154266      -0.00082275
N       -2.09191024       3.16859146       0.31295548       0.00046280       0.00359954      -0.00015427
C       -2.37442945       2.81294027       1.63888499      -0.00262253      -0.00123413      -0.00241684
O       -1.40885354       2.63789243       2.47215280      -0.00087418       0.00231399      -0.00030853
C       -3.78183811       2.62958613       1.97004590       0.00164551      -0.00591354      -0.00077133
C       -4.14944219       2.13966211       3.35307990      -0.00395950       0.00236542       0.00020569
C       -4.71976668       2.88681669       0.99714881       0.00159408      -0.00051422      -0.00236542
H       -9.56278150       2.77061283       0.10813276      -0.00257110       0.00303390      -0.00118271
H       -9.19619354       4.50491652       0.35662230      -0.00683913      -0.00200546      -0.00334243
H       -8.32689430       3.84005739      -1.82524275       0.00015427       0.00005142       0.00015427
H       -4.93640146       4.36203058      -2.00340282       0.00061706      -0.00164551       0.00267395
H       -5.22090471       1.56858211      -2.08125446      -0.00107986       0.00277679      -0.00236542
H       -6.21057748       2.64959133      -3.10014591      -0.00138840      -0.00200546       0.00205688
H       -7.05100045       1.44303492      -0.39362797      -0.00082275       0.00149124       0.00215973
H       -5.78564170       2.77807166       1.18609672       0.00596496      -0.00365097      -0.00092560
H       -5.22501522       2.26296239       3.54690455      -0.00442230       0.00200546       0.00020569
H       -3.58908139       2.69858497       4.12164534      -0.00293106      -0.00107986       0.00303390
H       -3.88444574       1.07249744       3.47575411      -0.00493652       0.00313675      -0.00102844
H       -1.07015649       3.11398423      -0.00295288      -0.00118271      -0.00282821      -0.00200546
P       -8.11165472      -0.44086895      -2.25518013       0.00416519      -0.00277679      -0.00149124
O       -9.12627929      -0.88146403      -3.44348879      -0.00107986       0.00030853       0.00143982
O       -8.11954370      -1.10777173      -0.77167362      -0.00221115      -0.00020569       0.00051422
O       -6.41457446      -0.60111396      -2.79895654       0.00200546       0.00221115      -0.00102844
C       -6.11321326      -0.34583005      -4.23586820      -0.00020569       0.00025711      -0.00051422
C       -5.56637747      -1.61689071      -4.88952905       0.00092560      -0.00005142       0.00334243
O       -4.36646347      -2.11344781      -4.12921881       0.00257110       0.00339386       0.00102844
C       -6.52712407      -2.83283086      -4.94758448       0.00071991       0.00061706       0.00138840
O       -6.26766589      -3.65809848      -6.14996585      -0.00123413      -0.00308532       0.00035995
C       -6.23897495      -3.60842585      -3.63823227       0.00143982       0.00041138       0.00411377
C       -4.73522821      -3.36270054      -3.37904148       0.00205688      -0.00395950       0.00514221
N       -4.31824938      -3.25273356      -1.95628681       0.00102844       0.00035995       0.00128555
C       -2.95834287      -3.56827000      -1.67542653       0.00107986       0.00030853      -0.00035995
O       -2.12998073      -3.90365102      -2.57777807       0.00185119      -0.00030853       0.00370239
N       -2.59567575      -3.48238553      -0.33809986       0.00097702       0.00066849      -0.00077133
C       -3.41278727      -3.07424191       0.72260263       0.00365097      -0.00077133      -0.00169693
O       -2.93937383      -3.02390477       1.91822360      -0.00000000       0.00143982       0.00056564
C       -4.76799670      -2.68125333       0.37156299       0.00293106      -0.00092560      -0.00082275
C       -5.66163500      -2.10738933       1.44915814       0.00000000       0.00231399      -0.00154266
C       -5.15727067      -2.77844382      -0.94309284      -0.00123413      -0.00205688       0.00195404
H       -7.01261078      -0.00259347      -4.77405994      -0.00025711       0.00030853       0.00061706
H       -5.35136454       0.44688209      -4.26038646      -0.00000000      -0.00097702      -0.00390808
H       -5.21838351      -1.36601514      -5.90572981      -0.00128555       0.00041138       0.00426803
H       -4.11512423      -4.16136933      -3.80324815       0.00308532      -0.00077133      -0.00293106
H       -6.87493733      -3.20952782      -2.84039911      -0.00005142       0.00061706       0.00406234
H       -6.45878304      -4.67871415      -3.75514806       0.00082275       0.00149124      -0.00277679
H       -7.57914724      -2.52889772      -5.02613345       0.00082275       0.00308532      -0.00179977
H       -6.14072091      -2.43819018      -1.24537951      -0.00205688      -0.00118271      -0.00118271
H       -5.83442866      -2.83992284       2.25708722      -0.00061706       0.00267395      -0.00046280
H       -6.62927436      -1.79494101       1.03088756      -0.00262253       0.00231399      -0.00154266
H       -5.17834959      -1.22761552       1.91340747      -0.00313675       0.00426803       0.00082275
H       -1.56245524      -3.66972371      -0.12278601      -0.00354812      -0.00185119       0.00030853
C       -2.29892817      -0.13392072       0.50990880       0.00046280       0.00133697       0.00138840
C       -3.26750523      -0.01990655      -0.48631620      -0.00015427       0.00041138      -0.00164551
C       -2.93246185      -0.19019892      -1.85995868       0.00344528      -0.00061706      -0.00077133
C       -1.61377884      -0.43297491      -2.22450771       0.00066849      -0.00195404      -0.00215973
C       -0.58125091      -0.52642404      -1.23693931       0.00190262       0.00015427      -0.00020569
C        0.77866919      -0.72353341      -1.60765940       0.00195404      -0.00092560      -0.00082275
C        1.72834609      -0.75790036      -0.59983826      -0.00005142       0.00241684       0.00190262
N        3.11003510      -0.87777199      -0.69080289       0.00215973      -0.00066849      -0.00066849
C        3.66088131      -0.82030426       0.58958354       0.00046280       0.00118271       0.00169693
C        5.02119185      -0.82737311       0.94734105       0.00246826       0.00169693      -0.00066849
C        5.33427602      -0.71107856       2.30921500       0.00015427       0.00272537       0.00200546
C        4.31513623      -0.55963804       3.29402957      -0.00113129       0.00005142       0.00113129
C        2.95918160      -0.53022674       2.93804734      -0.00015427      -0.00087418       0.00107986
C        2.60207532      -0.67840556       1.56814211       0.00051422      -0.00102844       0.00092560
C        1.37003296      -0.65122187       0.80424672      -0.00010284       0.00041138       0.00159408
N        0.04779099      -0.53467240       1.15453637      -0.00020569      -0.00051422       0.00149124
C       -0.94606958      -0.40216904       0.16170551      -0.00041138      -0.00066849       0.00056564
C       -0.36332199      -0.55619726       2.59612724       0.00082275      -0.00169693       0.00179977
H       -2.59345659      -0.01084897       1.54750068      -0.00344528      -0.00035995       0.00041138
H       -4.29896569       0.18641719      -0.19990005       0.00071991       0.00097702      -0.00097702
H       -3.71337300      -0.17663187      -2.61585623       0.00097702      -0.00010284      -0.00174835
H       -1.33855406      -0.56463086      -3.27244694       0.00185119      -0.00046280      -0.00385666
H        1.06598912      -0.81229280      -2.65480953       0.00056564       0.00015427      -0.00159408
H        3.62436055      -0.81547473      -1.58480899       0.00066849       0.00154266       0.00113129
H        5.79045196      -0.89651510       0.17968096       0.00077133       0.00272537      -0.00118271
H        6.38122646      -0.72403023       2.61984348       0.00010284       0.00226257       0.00082275
H        4.59687889      -0.45301150       4.34317363      -0.00159408       0.00061706       0.00221115
H        2.20633953      -0.38132995       3.71007649       0.00030853       0.00035995       0.00190262
H        0.41802219      -1.04734401       3.17828397       0.00308532      -0.00185119      -0.00025711
H       -0.53632291       0.47166090       2.94411305       0.00020569      -0.00071991      -0.00179977
H       -1.27663440      -1.15463581       2.69080188      -0.00113129       0.00087418      -0.00025711
H       -5.29999795      -3.88153702      -6.17452377       0.00025711       0.00262253       0.00236542
H        7.86608558      -8.15855527       3.94061929       0.00395950       0.00329101       0.00066849
H       -6.44053624       5.07692959       0.86713922       0.00323959      -0.00102844      -0.00308532
H        6.47372262       0.90549718      -6.24056094      -0.00344528      -0.00334243      -0.00025711
