163
Properties=species:S:1:pos:R:3:forces:R:3 energy=-174133.9541107182 dipole="-3.0390043940661355 2.0689320777996083 -6.2251989000733925" pbc="F F F"
H        8.54075853      -6.05480322       5.39700804       0.00164551      -0.00303390       0.00375381
O        9.33141477      -5.81325468       4.84441272      -0.00519363       0.00735336       0.00000000
P        8.96182686      -4.43202089       3.78440679       0.00035995       0.00143982       0.00236542
O       10.40309941      -3.92295899       3.22656222      -0.00123413       0.00215973      -0.00061706
O        7.87810897      -3.44587993       4.49778023       0.00385666       0.00349670       0.00390808
O        8.03480531      -5.22890110       2.47467098       0.00195404       0.00107986      -0.00051422
C        8.72052235      -5.51042841       1.18394322      -0.00154266      -0.00313675       0.00164551
C        8.35335997      -4.48736294       0.09839586       0.00411377      -0.00041138       0.00107986
O        6.86651478      -4.48111489      -0.11413217      -0.00478225      -0.00005142      -0.00020569
C        8.71512137      -3.01106058       0.38725381      -0.00133697       0.00128555       0.00205688
O        8.92100106      -2.41343171      -0.98111631       0.00575927      -0.00118271      -0.00226257
C        7.46909933      -2.46747333       1.11065926      -0.00282821      -0.00334243       0.00061706
C        6.30608106      -3.18792181       0.40771528       0.00056564      -0.00462799       0.00000000
N        5.13582358      -3.46166152       1.24094161       0.00375381      -0.00205688       0.00123413
C        5.03843615      -3.70869266       2.63295834       0.00092560       0.00087418       0.00107986
N        3.77323616      -3.94399399       3.01660084       0.00000000      -0.00293106      -0.00411377
C        3.00582514      -3.86892012       1.82645499       0.00251968       0.00560501      -0.00149124
C        1.59869949      -4.00701993       1.60353710       0.00025711      -0.00329101       0.00035995
O        0.69161056      -4.24105010       2.48853777      -0.00308532      -0.00200546      -0.00457656
N        1.23729708      -3.83780551       0.24027748      -0.00113129      -0.00087418       0.00251968
C        2.13771408      -3.52862012      -0.78576453      -0.00473083      -0.00102844       0.00030853
N        1.62854263      -3.32833791      -2.02745056      -0.00293106       0.00097702       0.00138840
N        3.47633632      -3.40337399      -0.57752062      -0.00514221       0.00005142       0.00421661
C        3.84079427      -3.57824516       0.72441166       0.00349670       0.00298248      -0.00082275
H        9.81517689      -5.53721687       1.31652334      -0.00169693      -0.00128555      -0.00087418
H        8.36462144      -6.50385281       0.87211241      -0.00071991      -0.00462799      -0.00077133
H        8.81533562      -4.80885179      -0.84973833       0.00411377      -0.00185119       0.00092560
H        5.94264297      -2.61557167      -0.45282662       0.00339386      -0.00236542       0.00221115
H        7.52693703      -2.73350317       2.17294974       0.00113129      -0.00138840       0.00056564
H        7.38866433      -1.38106239       1.03995211       0.00545074      -0.00447372      -0.00431945
H        9.63754204      -2.89524263       0.97448277       0.00257110      -0.00205688      -0.00267395
H        5.90777465      -3.70100576       3.28410786      -0.00236542       0.00102844       0.00077133
H        0.20732115      -3.92584927       0.00977277       0.00164551       0.00236542      -0.00251968
H        2.27420631      -3.06866826      -2.76874938       0.00277679       0.00030853      -0.00190262
H        0.60746046      -3.31407441      -2.21103398      -0.00236542      -0.00215973       0.00087418
P        8.70185863      -0.67154457      -1.33150290      -0.00293106       0.00051422      -0.00066849
O        9.48854405      -0.44514437      -2.73731901       0.00277679      -0.00082275       0.00195404
O        8.92552682       0.27558436      -0.02781564       0.00298248      -0.00143982       0.00097702
O        6.92732579      -0.58841848      -1.59565796      -0.00071991      -0.00282821      -0.00483367
C        6.33908368      -1.18759794      -2.82447944       0.00035995       0.00200546       0.00061706
C        5.76599868      -0.10102784      -3.73997998       0.00020569      -0.00519363      -0.00241684
O        4.70313858       0.66836050      -2.99402457      -0.00272537      -0.00149124       0.00020569
C        6.77386887       0.96635294      -4.24907558      -0.00329101      -0.00200546      -0.00113129
O        6.50335737       1.36102876      -5.64881638       0.00025711      -0.00077133       0.00118271
C        6.60612568       2.12967256      -3.24148081       0.00210830       0.00107986      -0.00257110
C        5.09979157       2.11647870      -2.92356039       0.00010284       0.00077133      -0.00056564
N        4.71218042       2.65163935      -1.59127716      -0.00287964      -0.00030853      -0.00010284
C        3.31086066       2.64063486      -1.26111772      -0.00380523       0.00380523       0.00025711
O        2.46603356       2.32022139      -2.17193956      -0.00020569       0.00113129      -0.00046280
N        2.92971994       2.94042184       0.02353115       0.00354812       0.00010284       0.00334243
C        3.85604249       3.31172086       0.96546906       0.00431945      -0.00020569       0.00282821
N        3.43248678       3.46864540       2.23840033       0.00241684       0.00035995      -0.00041138
C        5.23657156       3.51090421       0.59437412       0.00102844       0.00046280       0.00071991
C        5.62611776       3.14709100      -0.66935646      -0.00143982      -0.00514221       0.00293106
H        7.08574528      -1.78295591      -3.37820403      -0.00478225       0.00087418       0.00431945
H        5.52751959      -1.85108538      -2.48716710       0.00493652       0.00179977      -0.00092560
H        5.27566116      -0.59129385      -4.59857485      -0.00251968      -0.00020569      -0.00575927
H        4.50123492       2.65551792      -3.67240025      -0.00359954      -0.00082275      -0.00102844
H        7.19160104       1.86978975      -2.34882573       0.00287964       0.00282821       0.00035995
H        6.95428376       3.08843564      -3.64811152      -0.00555358       0.00642776      -0.00467941
H        7.80201968       0.58493057      -4.25578958      -0.00349670       0.00462799      -0.00025711
H        6.66047039       3.22424170      -0.98885590      -0.00483367      -0.00298248      -0.00113129
H        5.96233633       3.88225634       1.31597953      -0.00041138      -0.00071991       0.00118271
H        2.46565067       3.20608713       2.51188577       0.00087418       0.00529647      -0.00123413
H        4.09073055       3.73336016       2.96827060      -0.00303390      -0.00133697       0.00082275
H        5.57107143       1.69173352      -5.72595182       0.00190262       0.00061706      -0.00231399
H       -7.51276505       5.17685789       5.28085539      -0.00087418      -0.00041138      -0.00113129
O       -7.36944196       4.30231168       5.73427917      -0.00462799      -0.00113129      -0.00143982
P       -7.35471054       3.00416283       4.51255915       0.00082275       0.00005142      -0.00221115
O       -8.86173604       2.65191632       3.99772507      -0.00077133      -0.00298248       0.00575927
O       -6.35086715       1.85373686       5.07536270      -0.00323959      -0.00205688       0.00071991
O       -6.45291695       3.87055427       3.22603022      -0.00704482       0.00143982      -0.00185119
C       -7.17993484       4.28446303       1.99553867      -0.00010284       0.00190262       0.00128555
C       -6.89169634       3.35678784       0.80725608      -0.00354812      -0.00143982       0.00185119
O       -5.41649138       3.31678735       0.53484320       0.00586212      -0.00185119       0.00133697
C       -7.29977379       1.87263535       0.96865641      -0.00071991      -0.00339386       0.00293106
O       -7.58739257       1.41795687      -0.43885892       0.00025711      -0.00159408      -0.00282821
C       -6.05387480       1.21670001       1.59549108       0.00329101       0.00154266       0.00020569
C       -4.88220753       1.97360926       0.94538846      -0.00113129       0.00277679       0.00087418
N       -3.69547423       2.14755626       1.77988127      -0.00431945       0.00586212       0.00221115
C       -3.55471152       2.24099053       3.18688660       0.00277679      -0.00061706      -0.00056564
N       -2.27246034       2.39091653       3.55633758       0.00215973      -0.00005142      -0.00354812
C       -1.53865613       2.41676917       2.34305858      -0.00190262      -0.00195404      -0.00344528
C       -0.13453754       2.53055849       2.09387991       0.00005142       0.00159408       0.00169693
O        0.80775467       2.62297756       2.96879265       0.00509078       0.00077133      -0.00514221
N        0.17917158       2.52018264       0.70773498       0.00241684      -0.00298248       0.00215973
C       -0.75703920       2.36154971      -0.31978800       0.00334243       0.00267395       0.00334243
N       -0.29101104       2.31543208      -1.59350109       0.00169693       0.00215973      -0.00154266
N       -2.09082275       2.24220387      -0.08322171       0.00550216      -0.00190262       0.00488510
C       -2.41137433       2.27639148       1.24155510      -0.00473083       0.00251968       0.00200546
H       -8.26649377       4.33150390       2.17870277       0.00221115       0.00354812       0.00365097
H       -6.80467124       5.29173118       1.75958949      -0.00282821       0.00308532       0.00061706
H       -7.37348568       3.78451614      -0.08729665      -0.00329101      -0.00046280       0.00056564
H       -4.54208216       1.47037998       0.03533384      -0.00416519      -0.00071991       0.00236542
H       -6.08073305       1.36105413       2.68281565      -0.00303390       0.00185119      -0.00046280
H       -6.01094795       0.14212365       1.39806032      -0.00236542       0.00370239       0.00107986
H       -8.20617448       1.73354372       1.57581166      -0.00354812       0.00143982       0.00210830
H       -4.40686314       2.18997871       3.85813592       0.00159408       0.00179977      -0.00447372
H        1.20009567       2.64142909       0.45534662      -0.00107986      -0.00421661      -0.00066849
H       -0.96483088       2.16221900      -2.33946577       0.00010284      -0.00035995      -0.00061706
H        0.72185789       2.33119303      -1.81573107       0.00401092      -0.00015427      -0.00416519
P       -7.31621449      -0.24266940      -1.04903479       0.00575927      -0.00411377      -0.00313675
O       -8.11568330      -0.25620215      -2.46497744      -0.00025711      -0.00236542       0.00143982
O       -7.49347198      -1.39241675       0.08854416      -0.00015427      -0.00159408      -0.00118271
O       -5.54245106      -0.23805109      -1.33449869      -0.00437088      -0.00020569      -0.00344528
C       -4.98655483       0.52345141      -2.48851477      -0.00267395      -0.00200546       0.00601638
C       -4.41976344      -0.42366593      -3.55003017      -0.00215973       0.00442230       0.00015427
O       -3.36821719      -1.30096304      -2.92081607       0.00329101      -0.00241684      -0.00545074
C       -5.42683007      -1.39364997      -4.20844085       0.00442230       0.00190262       0.00010284
O       -4.94277085      -1.58780909      -5.59933051      -0.00231399       0.00092560      -0.00092560
C       -5.29042403      -2.68750209      -3.37409601      -0.00133697       0.00066849      -0.00102844
C       -3.78196782      -2.73771753      -3.07183901       0.00015427      -0.00282821      -0.00447372
N       -3.38070900      -3.47058679      -1.84213585       0.00195404       0.00246826       0.00257110
C       -1.96861338      -3.59532854      -1.58420108       0.00236542      -0.00010284       0.00113129
O       -1.14273127      -3.20713097      -2.48659552      -0.00051422      -0.00349670      -0.00205688
N       -1.55295969      -4.09489286      -0.37428921      -0.00087418       0.00066849       0.00401092
C       -2.46255737      -4.50546708       0.56841162      -0.00344528       0.00159408       0.00046280
N       -1.99354177      -4.86536007       1.78291002      -0.00097702       0.00416519       0.00107986
C       -3.87293148      -4.52847769       0.26320870       0.00035995       0.00041138       0.00262253
C       -4.28920415      -3.98042635      -0.92292825       0.00246826       0.00437088       0.00164551
H       -5.75175874       1.17562437      -2.94317747       0.00287964       0.00000000       0.00658202
H       -4.17557427       1.14748701      -2.08153386      -0.00092560      -0.00246826      -0.00149124
H       -3.92478131       0.17816579      -4.33103487       0.00046280       0.00087418      -0.00467941
H       -3.20700670      -3.16058747      -3.90618085       0.00401092       0.00082275      -0.00586212
H       -5.87663369      -2.54954256      -2.45596529      -0.00056564      -0.00097702       0.00066849
H       -5.64853001      -3.58044940      -3.90581846       0.00010284      -0.00097702       0.00308532
H       -6.45651311      -1.00172453      -4.19469427       0.00668487      -0.00467941      -0.00149124
H       -5.34206988      -3.91423171      -1.17778585       0.00493652      -0.00149124      -0.00030853
H       -4.59459941      -4.91142421       0.98284399       0.00087418       0.00041138       0.00082275
H       -0.99889791      -4.70442575       2.03462714      -0.00277679      -0.00169693      -0.00071991
H       -2.63816317      -5.16105525       2.51321930       0.00272537      -0.00133697      -0.00128555
H       -5.53787922      -2.23794528      -6.05277026      -0.00030853       0.00010284      -0.00138840
C        3.90679088      -0.16404976       3.05800236      -0.00015427      -0.00493652       0.00246826
C        5.17296839       0.17417221       2.57803968       0.00056564      -0.00005142       0.00395950
C        5.43228304       0.24668257       1.17939076       0.00041138      -0.00077133       0.00046280
C        4.40959818       0.00251166       0.27229048       0.00303390       0.00262253      -0.00010284
C        3.08147120      -0.27931036       0.72034237       0.00035995      -0.00035995       0.00066849
C        2.01069486      -0.40805460      -0.21116444       0.00077133       0.00066849       0.00107986
C        0.74256886      -0.64640058       0.28981041      -0.00293106       0.00030853       0.00061706
N       -0.48151270      -0.77084263      -0.36166056      -0.00179977       0.00421661      -0.00077133
C       -1.49222247      -0.99814917       0.57759962      -0.00524505       0.00010284      -0.00082275
C       -2.87274403      -1.13360209       0.36119053      -0.00118271       0.00005142       0.00061706
C       -3.67941354      -1.39046632       1.47963343      -0.00097702       0.00102844      -0.00195404
C       -3.13711229      -1.44740286       2.79465972       0.00159408       0.00257110      -0.00000000
C       -1.76464119      -1.27121486       3.01759028      -0.00195404       0.00113129      -0.00287964
C       -0.90883460      -1.06248574       1.89952911      -0.00071991       0.00015427       0.00159408
C        0.50574478      -0.83250956       1.70957691       0.00107986      -0.00164551       0.00051422
N        1.55427293      -0.77380335       2.59074772      -0.00128555      -0.00442230      -0.00123413
C        2.84229488      -0.41144508       2.14451413       0.00251968      -0.00380523       0.00205688
C        1.31410260      -1.16192690       4.01767713       0.00030853       0.00056564      -0.00262253
H        3.73894434      -0.20243188       4.13196236      -0.00015427       0.00277679       0.00426803
H        5.97449933       0.38206048       3.28952378       0.00056564       0.00041138       0.00210830
H        6.42748603       0.49736000       0.81223394       0.00185119       0.00323959       0.00097702
H        4.60008328       0.06185463      -0.79813750       0.00077133       0.00452514      -0.00370239
H        2.19889887      -0.28369598      -1.27679254       0.00416519      -0.00226257       0.00185119
H       -0.62163647      -0.71477466      -1.36689482       0.00015427      -0.00020569      -0.00200546
H       -3.29469307      -1.06289724      -0.63888064      -0.00447372       0.00092560      -0.00293106
H       -4.74598262      -1.55602416       1.32622567       0.00030853       0.00118271       0.00149124
H       -3.80175149      -1.62070382       3.64292264       0.00113129       0.00272537      -0.00071991
H       -1.37709712      -1.28351294       4.03379151       0.00056564      -0.00365097      -0.00185119
H        0.63899356      -2.02510188       4.01937763       0.00334243       0.00174835       0.00257110
H        2.25504926      -1.47818041       4.47589008      -0.00509078       0.00272537       0.00056564
H        0.87976083      -0.31426311       4.56688191       0.00107986      -0.00241684      -0.00272537
