165
Properties=species:S:1:pos:R:3:forces:R:3 energy=-173260.14687108394 pbc="F F F"
P       -7.97822501      25.65475238       5.91226128      -0.00534789       0.00000000       0.00025711
O       -8.66683732      24.79471399       7.10645583      -0.00416519      -0.00298248      -0.00118271
O       -8.80736899      26.21633866       4.63259888      -0.00447372       0.00375381       0.00118271
O       -7.17159219      27.12338549       6.53756684      -0.00442230      -0.00179977       0.00210830
C       -6.10318285      26.93918570       7.55695156       0.00077133       0.00133697      -0.00010284
C       -5.10275931      28.09031841       7.43133319      -0.00416519       0.00606780       0.00226257
O       -4.35854780      27.96989301       6.13007266      -0.00025711      -0.00390808       0.00128555
C       -5.72043971      29.50918126       7.42211119      -0.00102844       0.00740478      -0.00185119
O       -4.67874097      30.38788429       8.04726729       0.00200546      -0.00334243      -0.00143982
C       -5.92498760      29.81637093       5.92481326       0.00133697      -0.00143982      -0.00401092
C       -4.72726360      29.11410184       5.24740452       0.00077133      -0.00051422      -0.00421661
P       -4.92768160      32.16279290       8.02419610      -0.00082275       0.00087418       0.00519363
O       -4.00297086      32.73202928       9.23358956       0.00550216       0.00375381       0.00046280
O       -6.50323855      32.52900778       7.83432246      -0.00169693       0.00015427       0.00061706
O       -4.18787686      32.55764336       6.43112729      -0.00344528       0.00143982      -0.00226257
C       -2.81272093      33.12542294       6.38864085       0.00015427      -0.00236542      -0.00046280
C       -2.83223871      34.64099980       6.16212037       0.00221115      -0.00015427       0.00334243
O       -3.49121578      34.93248761       4.84016985      -0.00092560       0.00041138       0.00323959
C       -3.60757645      35.47979732       7.20498065       0.00195404       0.00010284       0.00113129
O       -2.89658243      36.78315027       7.28262359       0.00190262      -0.00061706      -0.00041138
C       -5.01539169      35.64466922       6.58382556      -0.00035995      -0.00097702      -0.00000000
C       -4.71090224      35.77113842       5.07921565      -0.00077133       0.00066849      -0.00128555
H       -3.85702822      29.77973499       5.16060983       0.00251968       0.00318817       0.00107986
H       -5.94729048      30.89084741       5.70925386       0.00200546      -0.00334243      -0.00262253
H       -6.87210306      29.36351495       5.60346009      -0.00277679       0.00154266       0.00421661
H       -6.65145841      29.57737770       8.00361048      -0.00205688       0.00154266      -0.00138840
H       -4.36064908      28.00433215       8.24167343      -0.00077133       0.00354812      -0.00169693
H       -6.54962348      26.93718468       8.56659208      -0.00010284      -0.00370239      -0.00200546
H       -4.46042014      36.80286280       4.79251564       0.00133697       0.00077133       0.00231399
H       -5.54652655      36.52245045       6.97937723       0.00277679       0.00164551      -0.00123413
H       -5.60293788      34.74150754       6.79971672      -0.00092560      -0.00149124      -0.00061706
H       -3.63812306      34.99464558       8.19374868      -0.00071991      -0.00539932      -0.00133697
H       -3.38540581      37.36681774       7.91785439       0.00030853      -0.00169693      -0.00133697
H       -1.79057474      34.99990595       6.10091045       0.00082275       0.00514221      -0.00421661
H       -2.31803254      32.63336260       5.53791490       0.00442230      -0.00313675       0.00143982
H       -2.26694368      32.89347645       7.31796509       0.00287964      -0.00282821      -0.00210830
O       -5.70031669      36.66178736      -8.66517076       0.00102844       0.00509078      -0.00205688
C       -4.62696571      37.67846874      -8.84703213       0.00195404       0.00102844      -0.00195404
C       -3.78338260      37.83476492      -7.58506948      -0.00329101      -0.00035995       0.00082275
O       -4.67266661      38.12377194      -6.39402003      -0.00113129       0.00113129       0.00303390
C       -2.95520462      36.61516353      -7.13352146      -0.00210830       0.00046280       0.00113129
O       -1.71192093      36.62244361      -7.93442011      -0.00483367       0.00282821       0.00329101
C       -2.73293148      36.89739820      -5.62528202       0.00401092      -0.00000000      -0.00323959
C       -4.06572526      37.52890651      -5.17185229       0.00483367       0.00143982      -0.00102844
P       -0.77382218      35.09213919      -7.98843121      -0.00010284       0.00149124       0.00246826
O        0.52455474      35.37618713      -8.91840900      -0.00195404      -0.00097702      -0.00179977
O       -1.76738311      33.83226569      -8.26120207       0.00169693       0.00046280      -0.00385666
O       -0.30841330      35.14464612      -6.25095823       0.00442230      -0.00082275       0.00236542
C        0.94253169      34.43221873      -5.88435148       0.00035995       0.00061706       0.00123413
C        1.08946709      34.55097178      -4.36837949       0.00190262       0.00159408      -0.00169693
O       -0.04353515      33.82888704      -3.67071705      -0.00087418       0.00421661       0.00005142
C        2.37983696      33.88655008      -3.83147749       0.00010284       0.00133697      -0.00190262
O        2.72900605      34.62859712      -2.59809791      -0.00200546       0.00113129       0.00143982
C        1.93267447      32.44243903      -3.50537049       0.00071991      -0.00015427      -0.00061706
C        0.53216262      32.66532708      -2.90665641       0.00128555       0.00000000       0.00174835
H       -3.94062269      38.31831114      -4.42340356       0.00118271       0.00323959       0.00020569
H       -1.91703071      37.63023034      -5.52788051       0.00061706       0.00395950       0.00061706
H       -2.48019315      36.00929434      -5.03913452      -0.00498794       0.00030853       0.00128555
H       -3.50095338      35.67356590      -7.30339226       0.00107986       0.00010284      -0.00118271
H       -3.09993628      38.69293212      -7.71446471      -0.00226257      -0.00262253      -0.00303390
H       -5.06660478      38.64274883      -9.14520493      -0.00298248      -0.00138840       0.00128555
H       -3.96488921      37.32805484      -9.65591945       0.00313675       0.00025711      -0.00267395
H        0.58335595      32.93669698      -1.84671274       0.00020569       0.00041138       0.00066849
H        2.60742155      31.94337940      -2.79460992       0.00154266       0.00164551       0.00159408
H        1.88702762      31.83981711      -4.42630233      -0.00200546      -0.00195404       0.00015427
H        3.21176775      33.92392023      -4.55465949       0.00118271       0.00056564      -0.00179977
H        1.03341138      35.60576047      -4.06230036       0.00092560      -0.00041138       0.00323959
H        1.80338794      34.91429004      -6.37997673      -0.00298248      -0.00149124      -0.00025711
H        0.89255118      33.37602591      -6.19887752       0.00236542       0.00205688       0.00303390
O       -6.51626536      24.79958905       5.33335554      -0.00637634      -0.00123413      -0.00164551
H       -6.49091513      23.88395018       5.71977592      -0.00143982       0.00334243       0.00596496
O       -7.37001400      38.04826596      -6.98006928      -0.00318817       0.00699340       0.00005142
P       -7.39177288      37.33640569      -8.60137496       0.00010284      -0.00313675       0.00205688
O       -7.54550775      38.50264706      -9.72748723       0.00442230      -0.00061706       0.00524505
O       -8.36435318      36.03410268      -8.60466558      -0.00354812      -0.00179977      -0.00128555
H        3.46918857      34.15266894      -2.14171823      -0.00020569      -0.00035995      -0.00195404
H       -6.41644836      38.18163580      -6.66415571      -0.00226257       0.00000000       0.00071991
H       -5.57683151      25.98662595       7.38470904      -0.00426803      -0.00395950       0.00365097
N       -5.77610349      35.31845787       4.17973295       0.00303390      -0.00210830      -0.00380523
C       -6.87301662      34.84174019       2.27462062      -0.00020569      -0.00581069      -0.00097702
N       -7.56624969      34.18034569       3.31237192       0.00179977       0.00056564       0.00483367
C       -6.87806457      34.47468138       4.42952295       0.00416519       0.00257110      -0.00000000
H       -7.11450026      34.10384436       5.41968664      -0.00149124      -0.00323959       0.00082275
N       -6.09089826      35.53343407       0.11968820       0.00426803      -0.00025711       0.00138840
C       -5.08607692      36.21383636       0.74905716       0.00077133       0.00190262       0.00406234
H       -4.40511269      36.74632478       0.08669768      -0.00354812      -0.00169693      -0.00149124
N       -4.84382359      36.26676012       2.08648434       0.00179977      -0.00334243       0.00231399
C       -5.76630506      35.55097163       2.79897183      -0.00529647       0.00190262      -0.00298248
C       -7.01804850      34.81432734       0.85538198       0.00133697       0.00128555      -0.00221115
N       -7.96489394      34.11764409       0.18372710       0.00257110       0.00025711      -0.00159408
H       -8.62725249      33.53443421       0.68843508       0.00046280       0.00154266      -0.00447372
H       -7.94858994      34.09134977      -0.84993692      -0.00298248      -0.00113129       0.00051422
N       -5.00370696      28.62401308       3.89219770      -0.00030853      -0.00149124      -0.00190262
C       -4.87826123      28.31310156       1.67165187       0.00514221      -0.00714767      -0.00077133
N       -6.09538253      27.72930119       2.08821436      -0.00262253       0.00246826      -0.00493652
C       -6.13796975      27.93234439       3.41809587       0.00020569      -0.00642776       0.00046280
H       -6.93694346      27.60195116       4.07196436       0.00329101       0.00483367      -0.00164551
N       -3.14053818      29.25468285       0.32539095       0.00365097      -0.00164551       0.00015427
C       -2.55161581      29.70870128       1.47391289      -0.00102844       0.00431945       0.00282821
H       -1.63872841      30.28497985       1.32890163       0.00323959      -0.00308532      -0.00185119
N       -3.00728164      29.54666503       2.74397467      -0.00323959      -0.00010284       0.00005142
C       -4.18536953      28.85496724       2.78003208      -0.00293106      -0.00071991       0.00010284
C       -4.32255360      28.53693423       0.37942533      -0.00138840       0.00118271       0.00138840
N       -4.88506482      28.13085114      -0.78517078       0.00704482       0.00113129       0.00005142
H       -5.76997325      27.63046399      -0.77771473      -0.00385666      -0.00015427       0.00210830
H       -4.42480706      28.34035593      -1.68704601      -0.00359954      -0.00154266       0.00123413
N       -0.41782911      31.54590503      -3.01247898       0.00025711      -0.00205688       0.00077133
C       -0.78745410      31.03406655      -4.26023971       0.00401092       0.00169693       0.00071991
H       -0.26447535      31.46001804      -5.11275482      -0.00133697       0.00030853      -0.00020569
C       -1.04898235      31.09887144      -1.82297432      -0.00066849       0.00287964       0.00848464
O       -0.72400641      31.52555674      -0.67027162      -0.00046280      -0.00221115      -0.00380523
N       -2.05786037      30.16874136      -2.01305367      -0.00154266      -0.00329101      -0.00349670
H       -2.51710499      29.80066566      -1.11054906      -0.00071991      -0.00056564       0.00406234
C       -2.48476794      29.63051932      -3.23649242      -0.00051422      -0.00442230      -0.00611923
O       -3.46227061      28.79839280      -3.26263008       0.00149124       0.00046280       0.00272537
C       -1.76619255      30.08620740      -4.42291590      -0.00010284       0.00210830      -0.00622207
C       -2.15646293      29.53823234      -5.77644412      -0.00082275      -0.00113129      -0.00215973
H       -1.99910073      28.44586408      -5.82033860       0.00257110      -0.00082275       0.00179977
H       -1.56913951      30.01020415      -6.57875020      -0.00020569       0.00154266       0.00308532
H       -3.22484902      29.72255558      -5.97509199      -0.00092560       0.00046280       0.00231399
N       -5.02658787      36.54040881      -4.57738217      -0.00010284      -0.00056564      -0.00375381
C       -5.89122625      35.77291510      -5.35906958      -0.00282821      -0.00447372      -0.00298248
H       -5.78970446      35.90118786      -6.43355432       0.00298248      -0.00082275      -0.00143982
C       -5.01191605      36.42737618      -3.16797550       0.00092560       0.00416519      -0.00385666
O       -4.17785600      37.06399553      -2.44731675      -0.00046280      -0.00164551       0.00385666
N       -5.96930372      35.57362845      -2.63898729       0.00344528      -0.00046280       0.00066849
H       -6.01706817      35.52357344      -1.56903019      -0.00277679      -0.00298248       0.00087418
C       -6.90228559      34.81851401      -3.36503607       0.00077133       0.00143982       0.00437088
O       -7.75001835      34.08000854      -2.73898559      -0.00282821      -0.00020569       0.00000000
C       -6.82930283      34.92712340      -4.81549477      -0.00385666      -0.00503936       0.00370239
C       -7.80381958      34.13521237      -5.65729992      -0.00241684      -0.00221115      -0.00200546
H       -7.60712598      33.05299794      -5.57387632       0.00071991      -0.00205688       0.00174835
H       -7.74711622      34.42930527      -6.71555678       0.00493652       0.00272537      -0.00262253
H       -8.83707087      34.30346157      -5.30656754      -0.00092560       0.00365097       0.00236542
C       -6.04119983      31.43008093       1.30942361      -0.00005142       0.00241684      -0.00411377
C       -5.77283347      31.60217599       2.66523600       0.00066849      -0.00113129      -0.00077133
C       -4.67699654      32.39378839       3.10925911       0.00416519      -0.00375381      -0.00236542
C       -3.85094498      33.00702066       2.17577992       0.00133697      -0.00174835       0.00010284
C       -4.07700460      32.84949426       0.76867710       0.00318817      -0.00339386      -0.00097702
C       -3.22092597      33.46335829      -0.19140364      -0.00185119      -0.00066849      -0.00030853
C       -3.49345943      33.26215806      -1.53624852       0.00318817      -0.00046280      -0.00118271
N       -2.81110207      33.69117218      -2.67671382      -0.00673629      -0.00483367       0.00226257
C       -3.44298801      33.17692838      -3.81675127       0.00179977       0.00077133      -0.00077133
C       -3.06232952      33.31442766      -5.16428257      -0.00185119      -0.00118271       0.00318817
C       -3.85737638      32.67915094      -6.13133071       0.00251968       0.00215973       0.00030853
C       -4.98146442      31.88763903      -5.76231675      -0.00118271      -0.00025711       0.00077133
C       -5.34723150      31.72645787      -4.41881461      -0.00051422       0.00159408      -0.00113129
C       -4.59204394      32.39574268      -3.41616248      -0.00246826       0.00005142       0.00226257
C       -4.62546976      32.46548679      -1.97047119       0.00195404       0.00195404       0.00056564
N       -5.48610308      31.93637987      -1.04241700       0.00236542       0.00169693      -0.00077133
C       -5.21590163      32.05852153       0.33571076       0.00020569       0.00344528      -0.00113129
C       -6.72610238      31.24110530      -1.51615357       0.00298248       0.00195404       0.00092560
H       -6.86838959      30.79073306       1.01330045       0.00226257      -0.00046280      -0.00169693
H       -6.42086040      31.11688829       3.39465203      -0.00149124       0.00231399      -0.00133697
H       -4.51139529      32.54001478       4.17551752      -0.00025711       0.00143982       0.00010284
H       -3.03311953      33.64792721       2.50602494       0.00113129       0.00030853       0.00041138
H       -2.37150712      34.06202086       0.13752116      -0.00519363       0.00169693      -0.00267395
H       -1.89252777      34.14174034      -2.70377329       0.00123413      -0.00143982       0.00498794
H       -2.16500767      33.86269259      -5.44430239       0.00154266       0.00149124      -0.00323959
H       -3.57161890      32.78276610      -7.17847112      -0.00035995      -0.00010284       0.00015427
H       -5.56293286      31.38628557      -6.53815541      -0.00041138      -0.00123413      -0.00077133
H       -6.19113269      31.08958574      -4.16384233      -0.00015427      -0.00071991       0.00010284
H       -7.51090256      31.33965089      -0.76167308       0.00123413      -0.00159408      -0.00082275
H       -7.07760560      31.74738002      -2.41884521      -0.00005142      -0.00159408       0.00051422
H       -6.50464572      30.18101482      -1.70631370       0.00087418       0.00221115       0.00097702
